                                  MODFLOW-NWT-SWR1 
      U.S. GEOLOGICAL SURVEY MODULAR FINITE-DIFFERENCE GROUNDWATER-FLOW MODEL
                             VERSION 1.1.4 4/01/2018
                    BASED ON MODFLOW-2005 VERSION 1.12.00 02/03/2017

 LIST FILE: Agwater1.lst
                         UNIT    9

 OPENING Agwater1.ba6
 FILE TYPE:BAS6   UNIT   75   STATUS:OLD    
 FORMAT:FORMATTED              ACCESS:SEQUENTIAL          

 OPENING Agwater1.upw
 FILE TYPE:UPW   UNIT    7   STATUS:OLD    
 FORMAT:FORMATTED              ACCESS:SEQUENTIAL          

 OPENING Agwater1.dis
 FILE TYPE:DIS   UNIT    8   STATUS:OLD    
 FORMAT:FORMATTED              ACCESS:SEQUENTIAL          

 OPENING Agwater1.nwt
 FILE TYPE:NWT   UNIT   13   STATUS:OLD    
 FORMAT:FORMATTED              ACCESS:SEQUENTIAL          

 OPENING Agwater1.oc
 FILE TYPE:OC   UNIT   14   STATUS:OLD    
 FORMAT:FORMATTED              ACCESS:SEQUENTIAL          

 OPENING Agwater1.sfr
 FILE TYPE:SFR   UNIT   15   STATUS:OLD    
 FORMAT:FORMATTED              ACCESS:SEQUENTIAL          

 OPENING Agwater1.ghb
 FILE TYPE:GHB   UNIT   17   STATUS:OLD    
 FORMAT:FORMATTED              ACCESS:SEQUENTIAL          

 OPENING Agwater1.uzf
 FILE TYPE:UZF   UNIT   19   STATUS:OLD    
 FORMAT:FORMATTED              ACCESS:SEQUENTIAL          

 OPENING Agwater1.gag
 FILE TYPE:GAGE   UNIT   32   STATUS:OLD    
 FORMAT:FORMATTED              ACCESS:SEQUENTIAL          

 OPENING seg1.tab
 FILE TYPE:DATA   UNIT   55   STATUS:UNKNOWN
 FORMAT:FORMATTED              ACCESS:SEQUENTIAL          

 OPENING seg9.tab
 FILE TYPE:DATA   UNIT   56   STATUS:UNKNOWN
 FORMAT:FORMATTED              ACCESS:SEQUENTIAL          

 OPENING Agwater1.awu
 FILE TYPE:AWU   UNIT   57   STATUS:OLD    
 FORMAT:FORMATTED              ACCESS:SEQUENTIAL          

 OPENING Agwater1.hed
 FILE TYPE:DATA   UNIT   62   STATUS:UNKNOWN
 FORMAT:FORMATTED              ACCESS:SEQUENTIAL          

 OPENING Agwater1GW.ts5
 FILE TYPE:DATA   UNIT  105   STATUS:UNKNOWN
 FORMAT:FORMATTED              ACCESS:SEQUENTIAL          

 OPENING Agwater1GW_ET.ts5
 FILE TYPE:DATA   UNIT  106   STATUS:UNKNOWN
 FORMAT:FORMATTED              ACCESS:SEQUENTIAL          

 OPENING Agwater1GW_ET.all
 FILE TYPE:DATA   UNIT  107   STATUS:UNKNOWN
 FORMAT:FORMATTED              ACCESS:SEQUENTIAL          

 OPENING Agwater1GW.all
 FILE TYPE:DATA   UNIT  108   STATUS:UNKNOWN
 FORMAT:FORMATTED              ACCESS:SEQUENTIAL          

 OPENING Agwater1.uzfot
 FILE TYPE:DATA(BINARY)   UNIT   61   STATUS:UNKNOWN
 FORMAT:BINARY                 ACCESS:SEQUENTIAL          

 OPENING Agwater1cbc.unf
 FILE TYPE:DATA(BINARY)   UNIT  102   STATUS:UNKNOWN
 FORMAT:BINARY                 ACCESS:SEQUENTIAL          

 OPENING welllist.unf
 FILE TYPE:DATA(BINARY)   UNIT  103   STATUS:UNKNOWN
 FORMAT:BINARY                 ACCESS:SEQUENTIAL          

 OPENING wellirrlist.unf
 FILE TYPE:DATA(BINARY)   UNIT  104   STATUS:UNKNOWN
 FORMAT:BINARY                 ACCESS:SEQUENTIAL          

 OPENING Agwater1.uzf1
 FILE TYPE:DATA   UNIT   65   STATUS:UNKNOWN
 FORMAT:FORMATTED              ACCESS:SEQUENTIAL          

 OPENING Agwater1.uzf2
 FILE TYPE:DATA   UNIT   66   STATUS:UNKNOWN
 FORMAT:FORMATTED              ACCESS:SEQUENTIAL          

 OPENING Agwater1.uzf3
 FILE TYPE:DATA   UNIT   67   STATUS:UNKNOWN
 FORMAT:FORMATTED              ACCESS:SEQUENTIAL          

 OPENING Agwater1.uzf4
 FILE TYPE:DATA   UNIT   68   STATUS:UNKNOWN
 FORMAT:FORMATTED              ACCESS:SEQUENTIAL          

 OPENING Agwater1.flw
 FILE TYPE:DATA   UNIT   81   STATUS:UNKNOWN
 FORMAT:FORMATTED              ACCESS:SEQUENTIAL          

 OPENING Agwater1.sg1
 FILE TYPE:DATA   UNIT   83   STATUS:UNKNOWN
 FORMAT:FORMATTED              ACCESS:SEQUENTIAL          

 OPENING Agwater1.sg2
 FILE TYPE:DATA   UNIT   84   STATUS:UNKNOWN
 FORMAT:FORMATTED              ACCESS:SEQUENTIAL          

 OPENING Agwater1.sg3
 FILE TYPE:DATA   UNIT   85   STATUS:UNKNOWN
 FORMAT:FORMATTED              ACCESS:SEQUENTIAL          

 OPENING Agwater1.sg4
 FILE TYPE:DATA   UNIT   86   STATUS:UNKNOWN
 FORMAT:FORMATTED              ACCESS:SEQUENTIAL          

 OPENING Agwater1.sg5
 FILE TYPE:DATA   UNIT   87   STATUS:UNKNOWN
 FORMAT:FORMATTED              ACCESS:SEQUENTIAL          

 OPENING Agwater1.sg6
 FILE TYPE:DATA   UNIT   88   STATUS:UNKNOWN
 FORMAT:FORMATTED              ACCESS:SEQUENTIAL          

 OPENING Agwater1.sg7
 FILE TYPE:DATA   UNIT   89   STATUS:UNKNOWN
 FORMAT:FORMATTED              ACCESS:SEQUENTIAL          

 OPENING Agwater1.sg8
 FILE TYPE:DATA   UNIT   90   STATUS:UNKNOWN
 FORMAT:FORMATTED              ACCESS:SEQUENTIAL          

 OPENING Agwater1.sg9
 FILE TYPE:DATA   UNIT   91   STATUS:UNKNOWN
 FORMAT:FORMATTED              ACCESS:SEQUENTIAL          

 BAS -- BASIC PACKAGE, VERSION 1.1.4, 4/01/2018 INPUT READ FROM UNIT   75
 
 MODFLOW was compiled using mixed precision
 Precision of REAL variables:           6
 Precision of DOUBLE PRECISION variables:          15

 DISCRETIZATION INPUT DATA READ FROM UNIT    8
 #Test problem 2-- Discretization input
 #Example problem using the UZF1 Package
    1 LAYERS        15 ROWS        10 COLUMNS
   25 STRESS PERIOD(S) IN SIMULATION
 MODEL TIME UNIT IS SECONDS
 MODEL LENGTH UNIT IS FEET
  Confining bed flag for each layer:
   0

                     DELR =   5000.00    

                     DELC =   5000.00    



           TOP ELEVATION OF LAYER 1
 READING ON UNIT    8 WITH FORMAT: (10F7.0)            

            1           2           3           4           5           6           7           8           9          10
 ........................................................................................................................
   1    1105.       1105.       0.000       0.000       0.000       0.000       0.000       0.000       0.000       0.000    
   2    1105.       1095.       1105.       0.000       0.000       1100.       1100.       1110.       0.000       0.000    
   3    0.000       1100.       1085.       1080.       1078.       1076.       1073.       1090.       0.000       0.000    
   4    1110.       1100.       1090.       1085.       1076.       1080.       1080.       1070.       1100.       0.000    
   5    1110.       1100.       1085.       1080.       1078.       1074.       1077.       1066.       1075.       1080.    
   6    1105.       1095.       1080.       1077.       1073.       1069.       1070.       1063.       1085.       1095.    
   7    1105.       1090.       1075.       1072.       1070.       1065.       1065.       1069.       1090.       0.000    
   8    0.000       1080.       1070.       1068.       1063.       1060.       1063.       1067.       1090.       0.000    
   9    0.000       1075.       1065.       1062.       1058.       1052.       1055.       1065.       1090.       0.000    
  10    0.000       1070.       1060.       1055.       1046.       1046.       1044.       1060.       1088.       1100.    
  11    0.000       1055.       1050.       1045.       1041.       1042.       1040.       1050.       1075.       0.000    
  12    1027.       1028.       1028.       1032.       1032.       1033.       1032.       1040.       1060.       0.000    
  13    997.0       1004.       1008.       1014.       1020.       1027.       1032.       1038.       1050.       0.000    
  14    0.000       1030.       1040.       1045.       1050.       1050.       1050.       1050.       1044.       0.000    
  15    0.000       0.000       1080.       1080.       1080.       1080.       0.000       0.000       0.000       0.000    



             MODEL LAYER BOTTOM EL. FOR LAYER   1
 READING ON UNIT    8 WITH FORMAT: (10F7.0)            

            1           2           3           4           5           6           7           8           9          10
 ........................................................................................................................
   1    1000.       1000.       0.000       0.000       0.000       0.000       0.000       0.000       0.000       0.000    
   2    1000.       900.0       900.0       0.000       0.000       950.0       950.0       950.0       0.000       0.000    
   3    0.000       850.0       670.0       680.0       680.0       770.0       770.0       890.0       0.000       0.000    
   4    925.0       850.0       650.0       650.0       650.0       680.0       740.0       850.0       950.0       0.000    
   5    925.0       800.0       650.0       600.0       600.0       600.0       650.0       720.0       850.0       950.0    
   6    925.0       800.0       650.0       600.0       550.0       600.0       650.0       720.0       850.0       970.0    
   7    925.0       800.0       650.0       600.0       550.0       600.0       650.0       720.0       950.0       0.000    
   8    0.000       850.0       700.0       650.0       570.0       600.0       700.0       850.0       950.0       0.000    
   9    0.000       850.0       700.0       650.0       540.0       580.0       700.0       850.0       950.0       0.000    
  10    0.000       850.0       700.0       630.0       530.0       580.0       650.0       800.0       900.0       950.0    
  11    0.000       850.0       700.0       620.0       580.0       620.0       700.0       800.0       900.0       0.000    
  12    900.0       830.0       710.0       640.0       600.0       650.0       700.0       800.0       900.0       0.000    
  13    900.0       810.0       750.0       700.0       650.0       700.0       750.0       800.0       900.0       0.000    
  14    0.000       950.0       850.0       850.0       850.0       850.0       850.0       850.0       850.0       0.000    
  15    0.000       0.000       950.0       950.0       950.0       950.0       0.000       0.000       0.000       0.000    


 STRESS PERIOD     LENGTH       TIME STEPS     MULTIPLIER FOR DELT    SS FLAG
 ----------------------------------------------------------------------------
        1         86400.00          1                    1.000         SS
        2         2628000.         30                    1.000         TR
        3         2628000.         30                    1.000         TR
        4         2628000.         30                    1.000         TR
        5         2628000.         30                    1.000         TR
        6         2628000.         30                    1.000         TR
        7         2628000.         30                    1.000         TR
        8         2628000.         30                    1.000         TR
        9         2628000.         30                    1.000         TR
       10         2628000.         30                    1.000         TR
       11         2628000.         30                    1.000         TR
       12         2628000.         30                    1.000         TR
       13         2628000.         30                    1.000         TR
       14         2628000.         30                    1.000         TR
       15         2628000.         30                    1.000         TR
       16         2628000.         30                    1.000         TR
       17         2628000.         30                    1.000         TR
       18         2628000.         30                    1.000         TR
       19         2628000.         30                    1.000         TR
       20         2628000.         30                    1.000         TR
       21         2628000.         30                    1.000         TR
       22         2628000.         30                    1.000         TR
       23         2628000.         30                    1.000         TR
       24         2628000.         30                    1.000         TR
       25         2628000.         30                    1.000         TR

 COMBINED STEADY-STATE AND TRANSIENT SIMULATION



 
 #Test Simulation 2-- Example problem using the UZF1 Package                     
 #Modified from example Problem 1 of SFR1 documentation report                   
 THE FREE FORMAT OPTION HAS BEEN SELECTED



                     BOUNDARY ARRAY FOR LAYER   1
 READING ON UNIT   75 WITH FORMAT: (20I4)              

                1           2           3           4           5           6           7           8           9          10
 ............................................................................................................................
   1            1           1           0           0           0           0           0           0           0           0
   2            1           1           1           0           0           1           1           1           0           0
   3            0           1           1           1           1           1           1           1           0           0
   4            1           1           1           1           1           1           1           1           1           0
   5            1           1           1           1           1           1           1           1           1           1
   6            1           1           1           1           1           1           1           1           1           1
   7            1           1           1           1           1           1           1           1           1           0
   8            0           1           1           1           1           1           1           1           1           0
   9            0           1           1           1           1           1           1           1           1           0
  10            0           1           1           1           1           1           1           1           1           1
  11            0           1           1           1           1           1           1           1           1           0
  12            1           1           1           1           1           1           1           1           1           0
  13            1           1           1           1           1           1           1           1           1           0
  14            0           1           1           1           1           1           1           1           1           0
  15            0           0           1           1           1           1           0           0           0           0

 AQUIFER HEAD WILL BE SET TO   6999.0     AT ALL NO-FLOW NODES (IBOUND=0).



                       INITIAL HEAD FOR LAYER   1
 READING ON UNIT   75 WITH FORMAT: (10F8.0)            

            1           2           3           4           5           6           7           8           9          10
 ........................................................................................................................
   1    1093.       1089.       6999.       6999.       6999.       6999.       6999.       6999.       6999.       6999.    
   2    1090.       1087.       1081.       6999.       6999.       1072.       1071.       1071.       6999.       6999.    
   3    6999.       1079.       1078.       1074.       1072.       1071.       1069.       1068.       6999.       6999.    
   4    1069.       1071.       1070.       1067.       1065.       1064.       1064.       1066.       1066.       6999.    
   5    1065.       1064.       1063.       1062.       1061.       1061.       1060.       1062.       1066.       1068.    
   6    1060.       1058.       1057.       1056.       1056.       1057.       1057.       1059.       1062.       1066.    
   7    1056.       1053.       1052.       1051.       1051.       1052.       1053.       1055.       1056.       6999.    
   8    6999.       1046.       1046.       1046.       1046.       1046.       1048.       1050.       1050.       6999.    
   9    6999.       1039.       1039.       1039.       1040.       1041.       1042.       1043.       1044.       6999.    
  10    6999.       1031.       1032.       1033.       1034.       1035.       1037.       1038.       1039.       1042.    
  11    6999.       1021.       1023.       1027.       1029.       1030.       1032.       1034.       1036.       6999.    
  12    1001.       1009.       1015.       1020.       1023.       1026.       1029.       1030.       1034.       6999.    
  13    994.5      1000.0       1007.       1013.       1019.       1024.       1029.       1034.       1036.       6999.    
  14    6999.       1004.       1009.       1014.       1019.       1024.       1029.       1035.       1039.       6999.    
  15    6999.       6999.       1012.       1015.       1019.       1022.       6999.       6999.       6999.       6999.    

 OUTPUT CONTROL IS SPECIFIED ONLY AT TIME STEPS FOR WHICH OUTPUT IS DESIRED
 HEADS WILL BE SAVED WITH FORMAT: (10F10.3)           
 SAVED HEADS WILL BE LABELED
 COMPACT CELL-BY-CELL BUDGET FILES WILL BE WRITTEN
 HEAD PRINT FORMAT CODE IS   4    DRAWDOWN PRINT FORMAT CODE IS   0
 HEADS WILL BE SAVED ON UNIT   62    DRAWDOWNS WILL BE SAVED ON UNIT    0
 # NWT Input File
 # Test Problem 3 for MODFLOW-NWT
 #HEADTOL  FLUXTOL MAXITEROUT THICKFACT LINMETH IPRNWT IBOTAV OPTIONS DBDREDUCE DBDINCREASE DBDGAMMA MOMFACT BACKFLAG MAXBACKITER BACKTOL BACKREDUCE

 NWT1 -- Newton Solver, VERSION 1.1.4, 4/01/2018
         INPUT READ FROM UNIT 13

 SPECIFIED OPTION:
 SOLVER INPUT VALUES ARE SPECIFIED BY USER
 ***XMD linear solver will be used***
 
   CONVERGENCE CRITERION OF   0.100000E-03 FOR HEAD SOLUTION
   AND A TOLERANCE OF   0.100000E+03 FOR FLOW SOLUTION AND 
   A MAXIMUM OF   500 OUTER ITERATIONS. 


   D-B-D REDUCTION FACTOR OF    0.970000E+00 AND 
   A D-B-D INCREASE FACTOR OF    0.100000E-04 AND 
   A D-B-D RELAXATION OF    0.000000E+00 AND 
   A MOMENTUM FACTOR OF    0.100000E+00 .


 ***BACKTRACKING IS INACTIVE***
 XMD -- LINEAR SOLUTION BY XMD PACKAGE VERSION 1.30
     BY MOTOMU IBARAKI, OHIO STATE UNIVERSITY, COLOMBUS, OH
                 INPUT READ FROM UNIT 13
 ACCELERATION METHOD                    (IACL) =         1
 NODE ORDERING FLAG                   (NORDER) =         0
 LEVEL OF FILL                         (LEVEL) =         7
 MAXIMUM NUMBER OF ORTHOGONALIZATIONS  (NORTH) =         7
 INDEX FOR USING REDUCED SYSTEM      (IREDSYS) =         1
 RESID. REDUCTION CONVERGE CRITERION  (RRCTOL) =  0.000000E+00
 INDEX FOR USING DROP TOLERANCE     (IDROPTOL) =         1
 DROP TOLERANCE VALUE                  (EPSRN) =  0.500000E-02
 CONVERGENCE CRITERIA OF           (HCLOSEXMD) =  0.100000E-03
 MAX. NUMBER OF LINEAR ITERATIONS  (MXITERXMD) =        50


 UPW1 -- UPSTREAM WEIGHTING FLOW PACKAGE, VERSION 1.1.4, 4/01/2018
         INPUT READ FROM UNIT  7

 #Layer-Property Flow Package input for test simulation 2
 CELL-BY-CELL FLOWS WILL BE SAVED ON UNIT  102
 No named parameters

   LAYER FLAGS:
 LAYER       LAYTYP          LAYAVG    CHANI           LAYVKA           LAYWET
 ---------------------------------------------------------------------------
    1             1             0     1.000E+00             0             0

   INTERPRETATION OF LAYER FLAGS:
                        INTERBLOCK     HORIZONTAL    DATA IN
         LAYER TYPE   TRANSMISSIVITY   ANISOTROPY   ARRAY VKA   WETTABILITY
 LAYER   (LAYTYP)        (LAYAVG)      (CHANI)     (LAYVKA)       (LAYWET)
 ---------------------------------------------------------------------------
    1   CONVERTIBLE      HARMONIC     1.000E+00    VERTICAL K  NON-WETTABLE



              HYD. COND. ALONG ROWS FOR LAYER   1
 READING ON UNIT    7 WITH FORMAT: (10F5.0)            

            1           2           3           4           5           6           7           8           9          10
 ........................................................................................................................
   1   2.0000E-03  2.0000E-03   0.000       0.000       0.000       0.000       0.000       0.000       0.000       0.000    
   2   4.0000E-04  2.0000E-03  2.0000E-03   0.000       0.000      4.0000E-04  4.0000E-04  4.0000E-04   0.000       0.000    
   3    0.000      4.0000E-04  2.0000E-03  2.0000E-03  4.0000E-04  4.0000E-04  4.0000E-04  4.0000E-04   0.000       0.000    
   4   4.0000E-04  4.0000E-04  4.0000E-04  2.0000E-03  2.0000E-03  2.0000E-03  4.0000E-04  4.0000E-04  4.0000E-04   0.000    
   5   4.0000E-04  4.0000E-04  4.0000E-04  2.0000E-03  2.0000E-03  2.0000E-03  2.0000E-03  2.0000E-03  2.0000E-03  2.0000E-03
   6   4.0000E-04  4.0000E-04  4.0000E-04  2.0000E-03  2.0000E-03  2.0000E-03  2.0000E-03  2.0000E-03  4.0000E-04  4.0000E-04
   7   4.0000E-04  4.0000E-04  4.0000E-04  2.0000E-03  2.0000E-03  2.0000E-03  2.0000E-03  2.0000E-03  4.0000E-04   0.000    
   8    0.000      4.0000E-04  4.0000E-04  2.0000E-03  2.0000E-03  2.0000E-03  2.0000E-03  4.0000E-04  4.0000E-04   0.000    
   9    0.000      4.0000E-04  4.0000E-04  2.0000E-03  2.0000E-03  2.0000E-03  2.0000E-03  4.0000E-04  4.0000E-04   0.000    
  10    0.000      4.0000E-04  4.0000E-04  2.0000E-03  2.0000E-03  2.0000E-03  2.0000E-03  4.0000E-04  4.0000E-04  4.0000E-04
  11    0.000      4.0000E-04  4.0000E-04  2.0000E-03  2.0000E-03  2.0000E-03  2.0000E-03  4.0000E-04  4.0000E-04   0.000    
  12   4.0000E-04  4.0000E-04  2.0000E-03  2.0000E-03  2.0000E-03  2.0000E-03  2.0000E-03  4.0000E-04  4.0000E-04   0.000    
  13   2.0000E-03  2.0000E-03  2.0000E-03  2.0000E-03  2.0000E-03  2.0000E-03  2.0000E-03  2.0000E-03  2.0000E-03   0.000    
  14    0.000      4.0000E-04  4.0000E-04  4.0000E-04  4.0000E-04  4.0000E-04  4.0000E-04  4.0000E-04  2.0000E-03   0.000    
  15    0.000       0.000      4.0000E-04  4.0000E-04  4.0000E-04  4.0000E-04   0.000       0.000       0.000       0.000    

      VERTICAL HYD. COND. =  1.000000E-06 FOR LAYER   1

         SPECIFIC STORAGE =  1.000000E-06 FOR LAYER   1



                     SPECIFIC YIELD FOR LAYER   1
 READING ON UNIT    7 WITH FORMAT: (10F5.0)            

            1           2           3           4           5           6           7           8           9          10
 ........................................................................................................................
   1   0.2000      0.2000       0.000       0.000       0.000       0.000       0.000       0.000       0.000       0.000    
   2   0.1000      0.2000      0.2000       0.000       0.000      0.1000      0.1000      0.1000       0.000       0.000    
   3    0.000      0.1000      0.2000      0.2000      0.1000      0.1000      0.1000      0.1000       0.000       0.000    
   4   0.1000      0.1000      0.1000      0.2000      0.2000      0.2000      0.1000      0.1000      0.1000       0.000    
   5   0.1000      0.1000      0.1000      0.2000      0.2000      0.2000      0.2000      0.2000      0.2000      0.2000    
   6   0.1000      0.1000      0.1000      0.2000      0.2000      0.2000      0.2000      0.2000      0.1000      0.1000    
   7   0.1000      0.1000      0.1000      0.2000      0.2000      0.2000      0.2000      0.2000      0.1000       0.000    
   8    0.000      0.1000      0.1000      0.2000      0.2000      0.2000      0.2000      0.1000      0.1000       0.000    
   9    0.000      0.1000      0.1000      0.2000      0.2000      0.2000      0.2000      0.1000      0.1000       0.000    
  10    0.000      0.1000      0.1000      0.2000      0.2000      0.2000      0.2000      0.1000      0.1000      0.1000    
  11    0.000      0.1000      0.1000      0.2000      0.2000      0.2000      0.2000      0.1000      0.1000       0.000    
  12   0.1000      0.1000      0.2000      0.2000      0.2000      0.2000      0.2000      0.1000      0.1000       0.000    
  13   0.2000      0.2000      0.2000      0.2000      0.2000      0.2000      0.2000      0.2000      0.2000       0.000    
  14    0.000      0.1000      0.1000      0.1000      0.1000      0.1000      0.1000      0.1000      0.2000       0.000    
  15    0.000       0.000      0.1000      0.1000      0.1000      0.1000       0.000       0.000       0.000       0.000    

 GHB -- GENERAL-HEAD BOUNDARY PACKAGE, VERSION 7, 5/2/2005
         INPUT READ FROM UNIT   17
 No named parameters
 MAXIMUM OF      2 ACTIVE GHB CELLS AT ONE TIME
 CELL-BY-CELL FLOWS WILL BE PRINTED WHEN ICBCFL NOT 0


     0 GHB parameters

 SFR7 -- STREAMFLOW ROUTING PACKAGE, VERSION 1.0.5, 2012-04-05
         INPUT READ FROM UNIT  15
 #SFR2 Package input for Testing supplimental pumping and irrigation
 No named parameters

 PROCESSING SFR2 OPTIONS
 
          1 Specified inflow files will be read with a maximum of        759 row entries per file
 
Stream loss will be calculated as a factor of the streambed hydraulic conductivity. Multiplication factor is equal to     0.1000000015E+00

 END PROCESSING SFR2 OPTIONS
 


 NUMBER OF STREAM REACHES IS   36

 NUMBER OF STREAM SEGMENTS IS    8

 NUMBER OF STREAM PARAMETERS IS    0

 NUMBER OF STREAM SEGMENTS DEFINED USING PARAMETERS IS              0

 MAXIMUM ERROR FOR STREAM LEAKAGE RATES IS  1.00E-06

 CONSTANT FOR MANNINGS EQUATION IS  1.4860E+00



 STREAM OUTPUT WILL BE WRITTEN TO FILE ON UNIT   81


   STREAM NETWORK DESCRIPTION: 

   LAYER    ROW    COL   SEGMENT   REACH     LENGTH
                          NUMBER   NUMBER    IN CELL        
   --------------------------------------------------
      1      1      1       1        1    4.5000E+03
      1      2      2       1        2    7.0000E+03
      1      3      3       1        3    6.0000E+03
      1      3      4       1        4    5.5500E+03
      1      4      5       2        1    6.5000E+03
      1      5      6       2        2    5.0000E+03
      1      6      6       2        3    5.0000E+03
      1      7      6       2        4    5.0000E+03
      1      8      6       2        5    5.0000E+03
      1      3      5       3        1    5.0000E+03
      1      3      6       3        2    5.0000E+03
      1      3      7       3        3    4.5000E+03
      1      4      8       3        4    6.0000E+03
      1      5      8       3        5    5.0000E+03
      1      6      8       3        6    2.0000E+03
      1      5     10       4        1    2.5000E+03
      1      5      9       4        2    5.0000E+03
      1      6      8       4        3    3.5000E+03
      1      6      8       5        1    4.0000E+03
      1      7      7       5        2    5.0000E+03
      1      8      7       5        3    3.5000E+03
      1      8      6       5        4    2.5000E+03
      1      9      6       6        1    5.0000E+03
      1     10      7       6        2    5.0000E+03
      1     11      7       6        3    5.0000E+03
      1     12      7       6        4    5.0000E+03
      1     13      7       6        5    2.0000E+03
      1     14      9       7        1    5.0000E+03
      1     13      8       7        2    5.5000E+03
      1     13      7       7        3    5.0000E+03
      1     13      6       8        1    5.0000E+03
      1     13      5       8        2    5.0000E+03
      1     13      4       8        3    5.0000E+03
      1     13      3       8        4    5.0000E+03
      1     13      2       8        5    5.0000E+03
      1     13      1       8        6    3.0000E+03




 UZF1 -- UNSATURATED FLOW PACKAGE, VERSION 1.4, 02/06/2012
         INPUT READ FROM UNIT 19
 #UZF Package input for test simulation 2
 No named parameters

 PROCESSING UZF OPTIONS
 
 
 INITIAL WATER CONTENT (THTI) WILL BE 
READ FOR THE FIRST SS OR TR STRESS PERIOD
 
 
 RESIDUAL WATER CONTENT (THTR) WILL BE 
READ AND USED FOR THE FIRST TRANSIENT STRESS 
PERIOD
 
 #etsquare    0.1
 
INFILTRATION WILL BE REJECTED USING 
LAND SURFACE K
 
 
HYDRAULIC CONDUCTIVITY OF LAND SURFACE 
WILL BE READ
 

 END PROCESSING UZF OPTIONS



            AREAL EXTENT OF UZ FLOW
 READING ON UNIT   19 WITH FORMAT: (20I4)              

                1           2           3           4           5           6           7           8           9          10
 ............................................................................................................................
   1            1           1           0           0           0           0           0           0           0           0
   2            1           1           1           0           0           1           1           1           0           0
   3            0           1           1           1           1           1           1           1           0           0
   4            1           1           1           1           1           1           1           1           1           0
   5            1           1           1           1           1           1           1           1           1           1
   6            1           1           1           1           1           1           1           1           1           1
   7            1           1           1           1           1           1           1           1           1           0
   8            0           1           1           1           1           1           1           1           1           0
   9            0           1           1           1           1           1           1           1           1           0
  10            0           1           1           1           1           1           1           1           1           1
  11            0           1           1           1           1           1           1           1           1           0
  12            1           1           1           1           1           1           1           1           1           0
  13            1           1           1           1           1           1           1           1           1           0
  14            0           1           1           1           1           1           1           1           1           0
  15            0           0           1           1           1           1           0           0           0           0
 OPTION 1 -- RECHARGE IN UZF TO TOP LAYER ONLY 



            ROUTING OVERLAND RUNOFF
 READING ON UNIT   19 WITH FORMAT: (20I4)              

                1           2           3           4           5           6           7           8           9          10
 ............................................................................................................................
   1            1           1           0           0           0           0           0           0           0           0
   2            1           1           1           0           0           3           3           3           0           0
   3            0           1           1           1           3           3           3           3           0           0
   4            8           8           2           2           2           2           2           3           3           0
   5            8           8           8           8           2           2           2           3           4           4
   6            8           8           8           8           8           2           2           4           4           4
   7            8           8           8           8           8           2           5           5           5           0
   8            0           8           8           8           8           2           5           5           5           0
   9            0           8           8           8           8           6           6           6           6           0
  10            0           8           8           8           8           6           6           6           6           6
  11            0           8           8           8           8           8           6           6           7           0
  12            8           8           8           8           8           8           6           7           7           0
  13            8           8           8           8           8           8           7           7           7           0
  14            0           8           8           8           8           8           7           7           7           0
  15            0           0           8           8           8           8           0           0           0           0



               SATURATED VERTICAL K
 READING ON UNIT   19 WITH FORMAT: (10F4.0)            

            1           2           3           4           5           6           7           8           9          10
 ........................................................................................................................
   1   1.0000E-05  1.0000E-05   0.000       0.000       0.000       0.000       0.000       0.000       0.000       0.000    
   2   1.0000E-05  1.0000E-05  1.0000E-05   0.000       0.000      1.0000E-05  1.0000E-05  1.0000E-05   0.000       0.000    
   3    0.000      1.0000E-05  1.0000E-05  1.0000E-05  1.0000E-05  1.0000E-05  1.0000E-05  1.0000E-05   0.000       0.000    
   4   1.0000E-05  1.0000E-05  1.0000E-05  1.0000E-05  1.0000E-05  1.0000E-05  1.0000E-05  1.0000E-05  1.0000E-05   0.000    
   5   1.0000E-05  1.0000E-05  1.0000E-05  1.0000E-05  1.0000E-05  1.0000E-05  1.0000E-05  1.0000E-05  1.0000E-05  1.0000E-05
   6   1.0000E-05  1.0000E-05  1.0000E-05  1.0000E-05  1.0000E-05  1.0000E-05  1.0000E-05  1.0000E-05  1.0000E-05  1.0000E-05
   7   1.0000E-05  1.0000E-05  1.0000E-05  1.0000E-05  1.0000E-05  1.0000E-05  1.0000E-05  1.0000E-05  1.0000E-05   0.000    
   8    0.000      1.0000E-05  1.0000E-05  1.0000E-05  1.0000E-05  1.0000E-05  1.0000E-05  1.0000E-05  1.0000E-05   0.000    
   9    0.000      1.0000E-05  1.0000E-05  1.0000E-05  1.0000E-05  1.0000E-05  1.0000E-05  1.0000E-05  1.0000E-05   0.000    
  10    0.000      1.0000E-05  1.0000E-05  1.0000E-05  1.0000E-05  1.0000E-05  1.0000E-05  1.0000E-05  1.0000E-05  1.0000E-05
  11    0.000      1.0000E-05  1.0000E-05  1.0000E-05  1.0000E-05  1.0000E-05  1.0000E-05  1.0000E-05  1.0000E-05   0.000    
  12   1.0000E-05  1.0000E-05  1.0000E-05  1.0000E-05  1.0000E-05  1.0000E-05  1.0000E-05  1.0000E-05  1.0000E-05   0.000    
  13   1.0000E-05  1.0000E-05  1.0000E-05  1.0000E-05  1.0000E-05  1.0000E-05  1.0000E-05  1.0000E-05  1.0000E-05   0.000    
  14    0.000      1.0000E-05  1.0000E-05  1.0000E-05  1.0000E-05  1.0000E-05  1.0000E-05  1.0000E-05  1.0000E-05   0.000    
  15    0.000       0.000      1.0000E-05  1.0000E-05  1.0000E-05  1.0000E-05   0.000       0.000       0.000       0.000    



            LAND SURFACE VERTICAL K
 READING ON UNIT   19 WITH FORMAT: (10F4.0)            

            1           2           3           4           5           6           7           8           9          10
 ........................................................................................................................
   1   1.0000E-05  1.0000E-05   0.000       0.000       0.000       0.000       0.000       0.000       0.000       0.000    
   2   1.0000E-05  1.0000E-05  1.0000E-05   0.000       0.000      1.0000E-05  1.0000E-05  1.0000E-05   0.000       0.000    
   3    0.000      1.0000E-05  1.0000E-05  1.0000E-05  1.0000E-05  1.0000E-05  1.0000E-05  1.0000E-05   0.000       0.000    
   4   1.0000E-05  1.0000E-05  1.0000E-05  1.0000E-05  1.0000E-05  1.0000E-05  1.0000E-05  1.0000E-05  1.0000E-05   0.000    
   5   1.0000E-05  1.0000E-05  1.0000E-05  1.0000E-05  1.0000E-05  1.0000E-05  1.0000E-05  1.0000E-05  1.0000E-05  1.0000E-05
   6   1.0000E-05  1.0000E-05  1.0000E-05  1.0000E-05  1.0000E-05  1.0000E-05  1.0000E-05  1.0000E-05  1.0000E-05  1.0000E-05
   7   1.0000E-05  1.0000E-05  1.0000E-05  1.0000E-05  1.0000E-05  1.0000E-05  1.0000E-05  1.0000E-05  1.0000E-05   0.000    
   8    0.000      1.0000E-05  1.0000E-05  1.0000E-05  1.0000E-05  1.0000E-05  1.0000E-05  1.0000E-05  1.0000E-05   0.000    
   9    0.000      1.0000E-05  1.0000E-05  1.0000E-05  1.0000E-05  1.0000E-05  1.0000E-05  1.0000E-05  1.0000E-05   0.000    
  10    0.000      1.0000E-05  1.0000E-05  1.0000E-05  1.0000E-05  1.0000E-05  1.0000E-05  1.0000E-05  1.0000E-05  1.0000E-05
  11    0.000      1.0000E-05  1.0000E-05  1.0000E-05  1.0000E-05  1.0000E-05  1.0000E-05  1.0000E-05  1.0000E-05   0.000    
  12   1.0000E-05  1.0000E-05  1.0000E-05  1.0000E-05  1.0000E-05  1.0000E-05  1.0000E-05  1.0000E-05  1.0000E-05   0.000    
  13   1.0000E-05  1.0000E-05  1.0000E-05  1.0000E-05  1.0000E-05  1.0000E-05  1.0000E-05  1.0000E-05  1.0000E-05   0.000    
  14    0.000      1.0000E-05  1.0000E-05  1.0000E-05  1.0000E-05  1.0000E-05  1.0000E-05  1.0000E-05  1.0000E-05   0.000    
  15    0.000       0.000      1.0000E-05  1.0000E-05  1.0000E-05  1.0000E-05   0.000       0.000       0.000       0.000    

     BROOKS-COREY EPSILON =   5.50000    

  SATURATED WATER CONTENT =  0.220000    

   RESIDUAL WATER CONTENT =  5.000000E-02

    INITIAL WATER CONTENT =  7.000000E-02

UNSATURATED FLOW RESULTS WILL BE PRINTED TO SEPARATE FILES FOR SELECTED MODEL CELLS, AND TIME STEPS AS DEFINED BY OUTPUT CONTROL PACKAGE 

SELECTED MODEL CELLS ARE: 
 ROW NUMBER  COLUMN NUMBER  FORTRAN UNIT NUMBER  OUTPUT OPTION


       6             4                 65                 1
       6             5                 66                 2
       8             4                 67                 3
       0             0                 68                 4



   8 GAGING STATIONS WERE SPECIFIED.
     (Lakes are identified by a negative value of the Lake Number)
     RECORDS WILL BE WRITTEN TO SEPARATE OUTPUT FILES REPRESENTED BY FOLLOWING UNIT NUMBERS:

 Stream Gages:
  GAGE #   SEGMENT   REACH   UNIT   OUTTYPE
       1       1       4      83       1
       2       2       3      84       1
       3       3       5      85       1
       4       4       3      86       1
       5       5       4      87       4
       6       6       5      88       4
       7       7       3      89       4
       8       8       6      90       4





 AWU -- AWU PACKAGE FOR NWT VERSION 1.1.3,  8/01/2017 INPUT READ FROM UNIT   57
 # AWU options

 PROCESSING AWU OPTIONS
 
 AGRICULTURAL DEMANDS WILL BE CALCULATED USING ET DEFICIT
  IRRIGATION RATE ADJUSTMENT FACTOR WAS SET EQUAL TO.  1000.000
 
 
 OPTION TO APPLY PUMPED WATER AS IRRIGATION IS ACTIVE. PUMPED IRRIGATION WATER WILL BE APPLIED TO          6 CELLS/RHUS.
 
 
 THE MAXIMUM NUMBER OF WELLS FOR SUPPLEMENTING DIVERSIONS OR APPLYING IRRIGATION IS          6 WELLS.
 
 
  UNFORMATTED CELL BY CELL RATES FOR SUP AND IRR WELLS WILL BE SAVED TO FILE UNIT NUMBER         -2
 
 
  UNFORMATTED CELL BY CELL RATES FOR SUP AND IRR WELLS WILL BE SAVED TO FILE UNIT NUMBER         -2
 
 
  GROUND WATER IRRIGATION, POTENTIAL AND ACTUAL ET WILL BE SAVED TO TIMES SERIES OUTPUT FILES.
 
 
  GROUND WATER IRRIGATION, POTENTIAL AND ACTUAL ET WILL BE SAVED TO TIMES SERIES OUTPUT FILES.
 

 END PROCESSING AWU OPTIONS
 # AWU time series

 PROCESSING TIME SERIES

 FINISHED READING TIME SERIES
 A total number of          0 AWU output time series files were activated for SURFACE WATER 
 A total number of          2 AWU output time series files were activated for GROUNDWATER 
 A total number of          0 AWU output time series files were activated for SURFACE WATER ET
 A total number of          2 AWU output time series files were activated for GROUNDWATER ET
1
                            STRESS PERIOD NO.    1, LENGTH =   86400.00    
                            -----------------------------------------------

                              NUMBER OF TIME STEPS =     1

                               MULTIPLIER FOR DELT =     1.000

                            INITIAL TIME STEP SIZE =   86400.00    

 BOUND. NO. LAYER   ROW   COL     STAGE      CONDUCTANCE         
 ----------------------------------------------------------------
      1      1     13      1       988.0          0.3800E-01
      2      1     14      9       1045.          0.3800E-01

      2 GHB CELLS



 CLASSIFICATION & COUNT OF STREAM SEGMENTS BASED ON SOURCE OF INFLOW:

                HEADWATER     DIVERSION     RECEIVES TRIBUTARY FLOW
                ---------     ---------     -----------------------
                     3              1               4



                    INPUT DATA FOR EACH STREAM SEGMENT
 ---------------------------------------------------------------------------------------------

 SEGMENT    SEG.     INFLOW   OVERLAND   STREAM    STREAM   ICALC  OUTFLOW  DIVERSION PRIORITY
    NO.    LENGTH     RATE     RUNOFF      ET       PPT.    METH.  TO SEG.  FROM SEG.    NO.

      1  2.305E+04 2.500E+01 0.000E+00 0.000E+00 0.000E+00    4        2        0        0
      2  2.650E+04 0.000E+00 0.000E+00 0.000E+00 0.000E+00    1        6        0        0
      3  2.750E+04 2.000E+00 0.000E+00 0.000E+00 0.000E+00    0        5        1        0
      4  1.100E+04 1.000E+01 0.000E+00 0.000E+00 0.000E+00    1        5        0        0
      5  1.500E+04 0.000E+00 0.000E+00 0.000E+00 0.000E+00    3        6        0        0
      6  2.200E+04 0.000E+00 0.000E+00 0.000E+00 0.000E+00    1        8        0        0
      7  1.550E+04 1.500E+02 0.000E+00 0.000E+00 0.000E+00    2        8        0        0
      8  2.800E+04 0.000E+00 0.000E+00 0.000E+00 0.000E+00    2        0        0        0


         STREAMBED PROPERTIES AND STREAM DIMENSIONS

 SEGMENT     BED HYD. COND.      BED THICKNESS     ELEV.-TOP OF BED     WIDTH OF STREAM     DEPTH OF STREAM    STREAM ROUGHNESS
    No.     UPPER     LOWER     UPPER     LOWER     UPPER     LOWER     UPPER     LOWER     UPPER     LOWER   CHANNEL      BANK

     1  3.000E-05 3.000E-05 3.000E+00 3.000E+00 1.095E+03 1.075E+03
     2  3.000E-05 3.000E-05 3.000E+00 3.000E+00 1.075E+03 1.050E+03 1.200E+01 1.200E+01                     3.000E-02
     3  3.000E-05 3.000E-05 2.000E+00 2.000E+00 1.075E+03 1.060E+03 1.000E+01 6.000E+00 2.000E+00 1.000E+00
     4  3.000E-05 3.000E-05 3.000E+00 3.000E+00 1.080E+03 1.060E+03 1.000E+01 1.000E+01                     3.000E-02
     5  3.000E-05 3.000E-05 3.000E+00 3.000E+00 1.060E+03 1.045E+03
     6  3.000E-05 3.000E-05 3.000E+00 3.000E+00 1.045E+03 1.025E+03 1.200E+01 1.200E+01                     3.000E-02
     7  6.000E-05 6.000E-05 3.000E+00 3.000E+00 1.040E+03 1.025E+03                                         2.500E-02 4.500E-02
     8  6.000E-05 6.000E-05 3.000E+00 3.000E+00 1.025E+03 9.900E+02                                         2.500E-02 4.500E-02

  EIGHT POINT CROSS-SECTION DATA FOR SEGMENTS WITH ICALC = 2
    X VALUES X VALUES START FROM LEFT SIDE LOOKING DOWNSTREAM

     SEGMENT NO.        X1        X2        X3        X4        X5        X6        X7        X8
            7      0.000E+00 1.000E+01 8.000E+01 1.000E+02 1.500E+02 1.700E+02 2.400E+02 2.500E+02
            8      0.000E+00 1.000E+01 8.000E+01 1.000E+02 1.500E+02 1.700E+02 2.400E+02 2.500E+02

    Z VALUES ARE RELATIVE TO STREAMBED ELEVATION

     SEGMENT NO.          Z1        Z2        Z3        Z4        Z5        Z6        Z7        Z8
            7      2.000E+01 1.300E+01 1.000E+01 2.000E+00 0.000E+00 1.000E+01 1.300E+01 2.000E+01
            8      2.500E+01 1.700E+01 1.300E+01 4.000E+00 0.000E+00 1.000E+01 1.600E+01 2.000E+01

 STREAMFLOW RELATION WITH DEPTH IS BASED ON EQUATION Q = CDPTH*(DEPTH)**FDPTH
 STREAMFLOW RELATION WITH WIDTH IS BASED ON EQUATION Q = AWDTH*(WIDTH)**BWDTH

 SEGMENT NO.      CDPTH     FDPTH    AWDTH     BWDTH

          5 3.000E-01 3.500E-01 3.800E+00 6.000E-01

 STREAMFLOW RELATION WITH DEPTH AND WIDTH IS BASED ON TABULATED VALUES

  SEGMENT NO.   STREAMFLOW       DEPTH       WIDTH

          1     5.0000E-01   2.5000E-01   3.0000E+00
          1     1.0000E+00   4.0000E-01   3.5000E+00
          1     2.0000E+00   5.5000E-01   4.2000E+00
          1     4.0000E+00   7.0000E-01   5.3000E+00
          1     7.0000E+00   8.0000E-01   7.0000E+00
          1     1.0000E+01   9.0000E-01   8.5000E+00
          1     2.0000E+01   1.1000E+00   1.2000E+01
          1     3.0000E+01   1.2500E+00   1.4000E+01
          1     5.0000E+01   1.4000E+00   1.7000E+01
          1     7.5000E+01   1.7000E+00   2.0000E+01
          1     1.0000E+02   1.8000E+00   2.2000E+01



TABULAR INFLOWS WERE READ FOR SEGMENT      1
FROM FILE UNIT NUMBER     55

          TIMES                    INFLOWS
             0.0000000000         5.0000000000
         86400.0000000000        22.0000000000
       2760000.0000000000        42.0000000000
       5270000.0000000000        77.0000000000
       7950000.0000000000        28.0000000000
      10500000.0000000000        99.0000000000
      13200000.0000000000        83.0000000000
      15800000.0000000000        75.0000000000
      18500000.0000000000        61.0000000000
      21200000.0000000000        47.0000000000
      23800000.0000000000        35.0000000000
      26400000.0000000000        26.0000000000
      29000000.0000000000        23.0000000000
      31700000.0000000000        19.0000000000
      34400000.0000000000        21.0000000000
      36800000.0000000000        98.0000000000
      39500000.0000000000        75.0000000000
      42100000.0000000000        63.0000000000
      44800000.0000000000        58.0000000000
      47300000.0000000000        54.0000000000
      50000000.0000000000        37.0000000000
      52700000.0000000000        25.0000000000
      55300000.0000000000        22.0000000000
      58000000.0000000000        21.0000000000
      60600000.0000000000        20.0000000000
      63200000.0000000000        19.0000000000



            AREAL INFILTRATION RATE
 READING ON UNIT   19 WITH FORMAT: (10F4.0)            

            1           2           3           4           5           6           7           8           9          10
 ........................................................................................................................
   1   1.0000E-10  2.0000E-10   0.000       0.000       0.000       0.000       0.000       0.000       0.000       0.000    
   2   2.0000E-10  1.0000E-10  2.0000E-10   0.000       0.000      8.0000E-10  8.0000E-10  5.0000E-10   0.000       0.000    
   3    0.000      5.0000E-10  1.0000E-10  1.0000E-10  8.0000E-10  8.0000E-10  5.0000E-10  5.0000E-10   0.000       0.000    
   4   8.0000E-10  5.0000E-10  1.0000E-10  1.0000E-10  1.0000E-10  1.0000E-10  1.0000E-10  1.0000E-10  2.0000E-10   0.000    
   5   8.0000E-10  5.0000E-10  1.0000E-10  1.0000E-10  1.0000E-10  1.0000E-10  1.0000E-10  1.0000E-10  1.0000E-10  1.0000E-10
   6   8.0000E-10  5.0000E-10  5.0000E-10  2.0000E-10  2.0000E-10  1.0000E-10  1.0000E-10  1.0000E-10  1.0000E-10  5.0000E-10
   7   8.0000E-10  5.0000E-10  5.0000E-10  2.0000E-10  2.0000E-10  1.0000E-10  1.0000E-10  2.0000E-10  2.0000E-10   0.000    
   8    0.000      5.0000E-10  5.0000E-10  2.0000E-10  2.0000E-10  1.0000E-10  1.0000E-10  2.0000E-10  5.0000E-10   0.000    
   9    0.000      5.0000E-10  5.0000E-10  2.0000E-10  2.0000E-10  1.0000E-10  1.0000E-10  2.0000E-10  5.0000E-10   0.000    
  10    0.000      5.0000E-10  5.0000E-10  2.0000E-10  2.0000E-10  1.0000E-10  1.0000E-10  2.0000E-10  5.0000E-10  8.0000E-10
  11    0.000      1.0000E-10  1.0000E-10  1.0000E-10  1.0000E-10  1.0000E-10  1.0000E-10  2.0000E-10  5.0000E-10   0.000    
  12   1.0000E-10  1.0000E-10  1.0000E-10  1.0000E-10  1.0000E-10  1.0000E-10  1.0000E-10  1.0000E-10  2.0000E-10   0.000    
  13   1.0000E-10  1.0000E-10  2.0000E-10  2.0000E-10  2.0000E-10  2.0000E-10  2.0000E-10  1.0000E-10  1.0000E-10   0.000    
  14    0.000      2.0000E-10  5.0000E-10  5.0000E-10  5.0000E-10  5.0000E-10  5.0000E-10  2.0000E-10  1.0000E-10   0.000    
  15    0.000       0.000      8.0000E-10  8.0000E-10  8.0000E-10  8.0000E-10   0.000       0.000       0.000       0.000    

                  ET RATE =  1.000000E-08

      ET EXTINCTION DEPTH =   5.00000    

 EXTINCTION WATER CONTENT =  7.000000E-02
 # AWU well list

 PROCESSING WELL LIST

 LAYER   ROW   COL   MAX STRESS RATE         
 --------------------------------------------
      1      1      6      4      -10.00    
      2      1      6      5      -10.00    
      3      1      7      4      -10.00    
      4      1      7      5      -10.00    
      5      1      8      4      -10.00    
      6      1      8      5      -10.00    

 FINISHED READING WELL LIST

      6 WELLS

 PROCESSING AWU STRESS PERIOD DATA
 # AWU stress period

 READING AWU STRESS PERIOD DATA

 READING IRRIGATION WELL

 END PROCESSING AWU STRESS PERIOD DATA OPTIONS
 
 SOLVING FOR HEAD 
                                                   Max.-Head-Change                         Max.-Flux-Residual
  Residual-Control   Outer-Iter.   Inner-Iter.     Column Row Layer    Maximum-Head-Change  Column Row Layer    Maximum-Flux-Residual          L2-NORM 
          0                 1           6             2    2     1      -0.2647755603E+02       3    3    1        -0.3343270791E+01      0.9154263424E+01
          0                 2           6             1    1     1      -0.3274896442E+02       1   13    1        -0.1711826791E+02      0.1781680713E+02
          0                 3           5             6   13     1      -0.1413776341E+01       6   13    1        -0.2334720320E+01      0.2909519550E+01
          0                 4           5             5   13     1      -0.2502496929E+00       5   13    1        -0.5010726931E+00      0.5347605584E+00
          0                 5           4             5   14     1       0.4745110741E-01       5   13    1         0.2603947412E-01      0.4236272885E-01
          0                 6           2             5   14     1      -0.1861716743E-02       6   10    1        -0.1372924737E-02      0.3212587123E-02
          0                 7           1             5   14     1       0.2945757694E-04       4   13    1         0.9655447866E-04      0.1619721106E-03

    ------------------------------------------------
       NWT REQUIRED            7 OUTER ITERATIONS 
       AND A TOTAL OF         29 INNER ITERATIONS.
    ------------------------------------------------

 OUTPUT CONTROL FOR STRESS PERIOD    1   TIME STEP    1
    PRINT BUDGET
    SAVE BUDGET
 UBDSV2 SAVING "   CONSTANT HEAD" ON UNIT 102 AT TIME STEP  1, STRESS PERIOD   1
 UBDSV1 SAVING "FLOW RIGHT FACE " ON UNIT 102 AT TIME STEP  1, STRESS PERIOD   1
 UBDSV1 SAVING "FLOW FRONT FACE " ON UNIT 102 AT TIME STEP  1, STRESS PERIOD   1

  HEAD DEP BOUNDS   PERIOD    1   STEP     1
 BOUNDARY      1   LAYER   1   ROW    13   COL     1   RATE   -0.284480    
 BOUNDARY      2   LAYER   1   ROW    14   COL     9   RATE    0.285742    



 STREAM LISTING     PERIOD      1   STEP        1

 LAYER ROW COL. STREAM  RCH.  FLOW INTO     FLOW TO   FLOW OUT OF   OVRLND.     DIRECT     STREAM       STREAM     STREAM     STREAM   STREAMBED  STREAMBED
                SEG.NO.  NO.  STRM. RCH.    AQUIFER    STRM. RCH.    RUNOFF     PRECIP       ET          HEAD       DEPTH      WIDTH   CONDCTNC.   GRADIENT

   1    1    1     1     1    5.0000E+00  9.9080E-02   4.9009E+00  0.000E+00  0.000E+00  0.000E+00  1.09378E+03  7.365E-01  5.893E+00  2.652E-02  1.246E+00
   1    2    2     1     2    4.9009E+00  1.5199E-01   4.7489E+00  0.000E+00  0.000E+00  0.000E+00  1.08879E+03  7.320E-01  5.818E+00  4.072E-02  1.244E+00
   1    3    3     1     3    4.7489E+00  1.2820E-01   4.6207E+00  0.000E+00  0.000E+00  0.000E+00  1.08315E+03  7.269E-01  5.733E+00  3.440E-02  1.242E+00
   1    3    4     1     4    4.6207E+00  1.1689E-01   4.5038E+00  0.000E+00  0.000E+00  0.000E+00  1.07813E+03  7.223E-01  5.658E+00  3.140E-02  1.241E+00
   1    4    5     2     1    2.5038E+00  2.5694E-01   2.2469E+00  0.000E+00  0.000E+00  0.000E+00  1.07223E+03  2.942E-01  1.200E+01  7.800E-02  1.098E+00
   1    5    6     2     2    2.2469E+00  1.9662E-01   2.0503E+00  0.000E+00  0.000E+00  0.000E+00  1.06679E+03  2.770E-01  1.200E+01  6.000E-02  1.092E+00
   1    6    6     2     3    2.0503E+00  1.9569E-01   1.8546E+00  0.000E+00  0.000E+00  0.000E+00  1.06205E+03  2.615E-01  1.200E+01  6.000E-02  1.087E+00
   1    7    6     2     4    1.8546E+00  1.9473E-01   1.6599E+00  0.000E+00  0.000E+00  0.000E+00  1.05732E+03  2.455E-01  1.200E+01  6.000E-02  1.082E+00
   1    8    6     2     5    1.6599E+00  1.9373E-01   1.4661E+00  0.000E+00  0.000E+00  0.000E+00  1.05259E+03  2.288E-01  1.200E+01  6.000E-02  1.076E+00
   1    3    5     3     1    2.0000E+00  2.8252E-01   1.7175E+00  0.000E+00  0.000E+00  0.000E+00  1.07555E+03  1.909E+00  9.636E+00  7.227E-02  1.955E+00
   1    3    6     3     2    1.7175E+00  2.4905E-01   1.4684E+00  0.000E+00  0.000E+00  0.000E+00  1.07264E+03  1.727E+00  8.909E+00  6.682E-02  1.864E+00
   1    3    7     3     3    1.4684E+00  1.9718E-01   1.2712E+00  0.000E+00  0.000E+00  0.000E+00  1.06987E+03  1.555E+00  8.218E+00  5.547E-02  1.777E+00
   1    4    8     3     4    1.2712E+00  2.2567E-01   1.0456E+00  0.000E+00  0.000E+00  0.000E+00  1.06682E+03  1.364E+00  7.455E+00  6.709E-02  1.682E+00
   1    5    8     3     5    1.0456E+00  1.5790E-01   8.8768E-01  0.000E+00  0.000E+00  0.000E+00  1.06362E+03  1.164E+00  6.655E+00  4.991E-02  1.582E+00
   1    6    8     3     6    8.8768E-01  5.5980E-02   8.3170E-01  0.000E+00  0.000E+00  0.000E+00  1.06158E+03  1.036E+00  6.145E+00  1.844E-02  1.518E+00
   1    5   10     4     1    1.0000E+01  9.0919E-02   9.9091E+00  0.000E+00  0.000E+00  0.000E+00  1.07836E+03  6.368E-01  1.000E+01  2.500E-02  1.212E+00
   1    5    9     4     2    9.9091E+00  1.8158E-01   9.7275E+00  0.000E+00  0.000E+00  0.000E+00  1.07154E+03  6.315E-01  1.000E+01  5.000E-02  1.211E+00
   1    6    8     4     3    9.7275E+00  1.2689E-01   9.6006E+00  0.000E+00  0.000E+00  0.000E+00  1.06381E+03  6.256E-01  1.000E+01  3.500E-02  1.209E+00
   1    6    8     5     1    1.0432E+01  2.2686E-01   1.0205E+01  0.000E+00  0.000E+00  0.000E+00  1.05868E+03  6.790E-01  1.542E+01  6.166E-02  1.226E+00
   1    7    7     5     2    1.0205E+01  2.7894E-01   9.9265E+00  0.000E+00  0.000E+00  0.000E+00  1.05417E+03  6.732E-01  1.519E+01  7.594E-02  1.224E+00
   1    8    7     5     3    9.9265E+00  1.9221E-01   9.7343E+00  0.000E+00  0.000E+00  0.000E+00  1.04992E+03  6.676E-01  1.497E+01  5.241E-02  1.223E+00
   1    8    6     5     4    9.7343E+00  1.3577E-01   9.5985E+00  0.000E+00  0.000E+00  0.000E+00  1.04691E+03  6.637E-01  1.482E+01  3.706E-02  1.221E+00
   1    9    6     6     1    1.1065E+01  2.2465E-01   1.0840E+01  0.000E+00  0.000E+00  0.000E+00  1.04347E+03  7.442E-01  1.200E+01  6.000E-02  1.248E+00
   1   10    7     6     2    1.0840E+01  2.2410E-01   1.0616E+01  0.000E+00  0.000E+00  0.000E+00  1.03892E+03  7.350E-01  1.200E+01  6.000E-02  1.245E+00
   1   11    7     6     3    1.0616E+01  2.2354E-01   1.0392E+01  0.000E+00  0.000E+00  0.000E+00  1.03436E+03  7.257E-01  1.200E+01  6.000E-02  1.242E+00
   1   12    7     6     4    1.0392E+01  2.2299E-01   1.0169E+01  0.000E+00  0.000E+00  0.000E+00  1.02981E+03  7.165E-01  1.200E+01  6.000E-02  1.239E+00
   1   13    7     6     5    1.0169E+01 -9.5300E-02   1.0265E+01  0.000E+00  0.000E+00  0.000E+00  1.02662E+03  7.138E-01  1.200E+01  2.400E-01 -1.324E-01
   1   14    9     7     1    1.5000E+02  1.3356E+00   1.4866E+02  0.000E+00  0.000E+00  0.000E+00  1.03987E+03  2.288E+00  5.529E+01  5.593E-01  7.960E-01
   1   13    8     7     2    1.4866E+02  1.8417E+00   1.4682E+02  0.000E+00  0.000E+00  0.000E+00  1.03478E+03  2.279E+00  5.526E+01  6.148E-01  9.986E-01
   1   13    7     7     3    1.4682E+02  1.4909E+00   1.4533E+02  0.000E+00  0.000E+00  0.000E+00  1.02969E+03  2.270E+00  5.522E+01  5.584E-01  8.899E-01
   1   13    6     8     1    1.5560E+02  8.6429E-01   1.5473E+02  0.000E+00  0.000E+00  0.000E+00  1.02473E+03  2.853E+00  4.137E+01  4.215E-01  6.834E-01
   1   13    5     8     2    1.5473E+02  1.5160E-01   1.5458E+02  0.000E+00  0.000E+00  0.000E+00  1.01847E+03  2.849E+00  4.132E+01  4.210E-01  1.200E-01
   1   13    4     8     3    1.5458E+02 -2.4372E+00   1.5702E+02  0.000E+00  0.000E+00  0.000E+00  1.01223E+03  2.857E+00  4.143E+01  4.222E+00 -1.924E-01
   1   13    3     8     4    1.5702E+02 -3.5513E+00   1.6057E+02  0.000E+00  0.000E+00  0.000E+00  1.00600E+03  2.878E+00  4.173E+01  4.252E+00 -2.784E-01
   1   13    2     8     5    1.6057E+02 -2.4850E+00   1.6305E+02  0.000E+00  0.000E+00  0.000E+00  9.99773E+02  2.898E+00  4.202E+01  4.282E+00 -1.934E-01
   1   13    1     8     6    1.6305E+02 -1.8046E+00   1.6486E+02  0.000E+00  0.000E+00  0.000E+00  9.94787E+02  2.912E+00  4.223E+01  2.582E+00 -2.330E-01



 UBDSV3 SAVING "           GW ET" ON UNIT  61 AT TIME STEP  1, STRESS PERIOD   1
 UBDSV3 SAVING "    UZF RECHARGE" ON UNIT  61 AT TIME STEP  1, STRESS PERIOD   1
 UBDSV3 SAVING " SURFACE LEAKAGE" ON UNIT  61 AT TIME STEP  1, STRESS PERIOD   1
 UBDSV3 SAVING "       HORT+DUNN" ON UNIT  61 AT TIME STEP  1, STRESS PERIOD   1
 UBDSV3 SAVING "  STORAGE CHANGE" ON UNIT  61 AT TIME STEP  1, STRESS PERIOD   1


UNSATURATED ZONE PACKAGE VOLUMETRIC BUDGET FOR  TIME STEP     1 STRESS PERIOD    1
  ------------------------------------------------------------------------------



     CUMULATIVE VOLUMES      L**3       RATES FOR THIS TIME STEP      L**3/T
     ------------------                 ------------------------

           IN:                                      IN:
           ---                                      ---
        INFILTRATION =       73224.0000          INFILTRATION =           0.8475

          OUT:                                     OUT:
          ----                                     ----
              UZF ET =       0.0000E+00                UZF ET =       0.0000E+00
        UZF RECHARGE =       73224.0000          UZF RECHARGE =           0.8475

            IN - OUT =       0.0000E+00              IN - OUT =       0.0000E+00

          STORAGE:                                 STORAGE:
          --------                                 --------
      STORAGE CHANGE =       0.0000E+00        STORAGE CHANGE =       0.0000E+00

 PERCENT DISCREPANCY IS DIFFERENCE BETWEEN IN-OUT MINUS CHANGE IN STORAGE
 DIVIDED BY THE AVERAGE OF IN AND OUT TIMES 100

 PERCENT DISCREPANCY =           0.00     PERCENT DISCREPANCY =           0.00






1
  VOLUMETRIC BUDGET FOR ENTIRE MODEL AT END OF TIME STEP    1, STRESS PERIOD   1
  ------------------------------------------------------------------------------

     CUMULATIVE VOLUMES      L**3       RATES FOR THIS TIME STEP      L**3/T
     ------------------                 ------------------------

           IN:                                      IN:
           ---                                      ---
             STORAGE     =           0.0000               STORAGE     =           0.0000
       CONSTANT HEAD     =           0.0000         CONSTANT HEAD     =           0.0000
     HEAD DEP BOUNDS     =       24688.1094       HEAD DEP BOUNDS     =           0.2857
      STREAM LEAKAGE     =      908468.3750        STREAM LEAKAGE     =          10.5147
        UZF RECHARGE     =       73223.9531          UZF RECHARGE     =           0.8475
               GW ET     =           0.0000                 GW ET     =           0.0000
     SURFACE LEAKAGE     =           0.0000       SURFACE LEAKAGE     =           0.0000

                TOTAL IN =     1006380.4375                  TOTAL IN =          11.6479

          OUT:                                     OUT:
          ----                                     ----
             STORAGE     =           0.0000               STORAGE     =           0.0000
       CONSTANT HEAD     =           0.0000         CONSTANT HEAD     =           0.0000
     HEAD DEP BOUNDS     =       24579.1133       HEAD DEP BOUNDS     =           0.2845
      STREAM LEAKAGE     =      896270.3750        STREAM LEAKAGE     =          10.3735
        UZF RECHARGE     =           0.0000          UZF RECHARGE     =           0.0000
               GW ET     =       85530.3672                 GW ET     =           0.9899
     SURFACE LEAKAGE     =           0.0000       SURFACE LEAKAGE     =           0.0000

               TOTAL OUT =     1006379.8750                 TOTAL OUT =          11.6479

                IN - OUT =           0.5625                  IN - OUT =       6.6757E-06

     PERCENT DISCREPANCY =           0.00         PERCENT DISCREPANCY =           0.00






         TIME SUMMARY AT END OF TIME STEP    1 IN STRESS PERIOD    1
                    SECONDS     MINUTES      HOURS       DAYS        YEARS
                    -----------------------------------------------------------
   TIME STEP LENGTH  86400.      1440.0      24.000      1.0000     2.73785E-03
 STRESS PERIOD TIME  86400.      1440.0      24.000      1.0000     2.73785E-03
         TOTAL TIME  86400.      1440.0      24.000      1.0000     2.73785E-03
1
1
                            STRESS PERIOD NO.    2, LENGTH =   2628000.    
                            -----------------------------------------------

                              NUMBER OF TIME STEPS =    30

                               MULTIPLIER FOR DELT =     1.000

                            INITIAL TIME STEP SIZE =   87600.00    

 REUSING NON-PARAMETER GHB CELLS FROM LAST STRESS PERIOD

      2 GHB CELLS

 REUSING STREAM SEGMENT DATA FROM LAST STRESS PERIOD



            AREAL INFILTRATION RATE
 READING ON UNIT   19 WITH FORMAT: (10F4.0)            

            1           2           3           4           5           6           7           8           9          10
 ........................................................................................................................
   1   1.0000E-10  2.0000E-10   0.000       0.000       0.000       0.000       0.000       0.000       0.000       0.000    
   2   2.0000E-10  1.0000E-10  2.0000E-10   0.000       0.000      8.0000E-10  8.0000E-10  5.0000E-10   0.000       0.000    
   3    0.000      5.0000E-10  1.0000E-10  1.0000E-10  8.0000E-10  8.0000E-10  5.0000E-10  5.0000E-10   0.000       0.000    
   4   8.0000E-10  5.0000E-10  1.0000E-10  1.0000E-10  1.0000E-10  1.0000E-10  1.0000E-10  1.0000E-10  2.0000E-10   0.000    
   5   8.0000E-10  5.0000E-10  1.0000E-10  1.0000E-10  1.0000E-10  1.0000E-10  1.0000E-10  1.0000E-10  1.0000E-10  1.0000E-10
   6   8.0000E-10  5.0000E-10  5.0000E-10  2.0000E-10  2.0000E-10  1.0000E-10  1.0000E-10  1.0000E-10  1.0000E-10  5.0000E-10
   7   8.0000E-10  5.0000E-10  5.0000E-10  2.0000E-10  2.0000E-10  1.0000E-10  1.0000E-10  2.0000E-10  2.0000E-10   0.000    
   8    0.000      5.0000E-10  5.0000E-10  2.0000E-10  2.0000E-10  1.0000E-10  1.0000E-10  2.0000E-10  5.0000E-10   0.000    
   9    0.000      5.0000E-10  5.0000E-10  2.0000E-10  2.0000E-10  1.0000E-10  1.0000E-10  2.0000E-10  5.0000E-10   0.000    
  10    0.000      5.0000E-10  5.0000E-10  2.0000E-10  2.0000E-10  1.0000E-10  1.0000E-10  2.0000E-10  5.0000E-10  8.0000E-10
  11    0.000      1.0000E-10  1.0000E-10  1.0000E-10  1.0000E-10  1.0000E-10  1.0000E-10  2.0000E-10  5.0000E-10   0.000    
  12   1.0000E-10  1.0000E-10  1.0000E-10  1.0000E-10  1.0000E-10  1.0000E-10  1.0000E-10  1.0000E-10  2.0000E-10   0.000    
  13   1.0000E-10  1.0000E-10  2.0000E-10  2.0000E-10  2.0000E-10  2.0000E-10  2.0000E-10  1.0000E-10  1.0000E-10   0.000    
  14    0.000      2.0000E-10  5.0000E-10  5.0000E-10  5.0000E-10  5.0000E-10  5.0000E-10  2.0000E-10  1.0000E-10   0.000    
  15    0.000       0.000      8.0000E-10  8.0000E-10  8.0000E-10  8.0000E-10   0.000       0.000       0.000       0.000    

                  ET RATE =  1.000000E-10

 USING ET EXTINCTION DEPTH FROM PREVIOUS STRESS PERIOD. CURRENT PERIOD IS:       2

 USING EXTINCTION WATER CONTENT FROM PREVIOUS STRESS PERIOD. CURRENT PERIOD IS:       2

 PROCESSING AWU STRESS PERIOD DATA

 READING AWU STRESS PERIOD DATA

 READING IRRIGATION WELL

 END PROCESSING AWU STRESS PERIOD DATA OPTIONS
 
 SOLVING FOR HEAD 
                                                   Max.-Head-Change                         Max.-Flux-Residual
  Residual-Control   Outer-Iter.   Inner-Iter.     Column Row Layer    Maximum-Head-Change  Column Row Layer    Maximum-Flux-Residual          L2-NORM 
          0                 1           2             4   13     1       0.1006156579E-01       4   13    1         0.5750687561E+00      0.1088378297E+01
          0                 2           2             7   13     1      -0.5256931232E-03       7   13    1        -0.2921013544E-01      0.3050875982E-01
          0                 3           1             7   13     1      -0.1721800985E-04       7   13    1        -0.9562031366E-03      0.1066552951E-02

    ------------------------------------------------
       NWT REQUIRED            3 OUTER ITERATIONS 
       AND A TOTAL OF          5 INNER ITERATIONS.
    ------------------------------------------------

 NO OUTPUT CONTROL FOR STRESS PERIOD    2   TIME STEP    1
 
 SOLVING FOR HEAD 
                                                   Max.-Head-Change                         Max.-Flux-Residual
  Residual-Control   Outer-Iter.   Inner-Iter.     Column Row Layer    Maximum-Head-Change  Column Row Layer    Maximum-Flux-Residual          L2-NORM 
          0                 1           2             4   13     1       0.9085939236E-02       4   13    1         0.5189280334E+00      0.1011026474E+01
          0                 2           1             6    2     1       0.7492018062E-04       1   13    1         0.3405551476E-02      0.9732116821E-02

    ------------------------------------------------
       NWT REQUIRED            2 OUTER ITERATIONS 
       AND A TOTAL OF          3 INNER ITERATIONS.
    ------------------------------------------------

 NO OUTPUT CONTROL FOR STRESS PERIOD    2   TIME STEP    2
 
 SOLVING FOR HEAD 
                                                   Max.-Head-Change                         Max.-Flux-Residual
  Residual-Control   Outer-Iter.   Inner-Iter.     Column Row Layer    Maximum-Head-Change  Column Row Layer    Maximum-Flux-Residual          L2-NORM 
          0                 1           2             4   13     1       0.8201835765E-02       4   13    1         0.4680729802E+00      0.9435712673E+00
          0                 2           1             6    2     1       0.7492058618E-04       1   13    1         0.3178469913E-02      0.9525774735E-02

    ------------------------------------------------
       NWT REQUIRED            2 OUTER ITERATIONS 
       AND A TOTAL OF          3 INNER ITERATIONS.
    ------------------------------------------------

 NO OUTPUT CONTROL FOR STRESS PERIOD    2   TIME STEP    3
 
 SOLVING FOR HEAD 
                                                   Max.-Head-Change                         Max.-Flux-Residual
  Residual-Control   Outer-Iter.   Inner-Iter.     Column Row Layer    Maximum-Head-Change  Column Row Layer    Maximum-Flux-Residual          L2-NORM 
          0                 1           2             4   13     1       0.7410393612E-02       4   13    1         0.4225657273E+00      0.8829443096E+00
          0                 2           1             6    2     1       0.7490964763E-04       1   13    1         0.2969385587E-02      0.1010109824E-01

    ------------------------------------------------
       NWT REQUIRED            2 OUTER ITERATIONS 
       AND A TOTAL OF          3 INNER ITERATIONS.
    ------------------------------------------------

 NO OUTPUT CONTROL FOR STRESS PERIOD    2   TIME STEP    4
 
 SOLVING FOR HEAD 
                                                   Max.-Head-Change                         Max.-Flux-Residual
  Residual-Control   Outer-Iter.   Inner-Iter.     Column Row Layer    Maximum-Head-Change  Column Row Layer    Maximum-Flux-Residual          L2-NORM 
          0                 1           2             4   13     1       0.6701658705E-02       4   13    1         0.3818309869E+00      0.8283558752E+00
          0                 2           1             6    2     1       0.7490841658E-04       1   13    1         0.2774356460E-02      0.1062941045E-01

    ------------------------------------------------
       NWT REQUIRED            2 OUTER ITERATIONS 
       AND A TOTAL OF          3 INNER ITERATIONS.
    ------------------------------------------------

 NO OUTPUT CONTROL FOR STRESS PERIOD    2   TIME STEP    5
 
 SOLVING FOR HEAD 
                                                   Max.-Head-Change                         Max.-Flux-Residual
  Residual-Control   Outer-Iter.   Inner-Iter.     Column Row Layer    Maximum-Head-Change  Column Row Layer    Maximum-Flux-Residual          L2-NORM 
          0                 1           2             4   13     1       0.6066585182E-02       4   13    1         0.3453453683E+00      0.7791815724E+00
          0                 2           1             6    2     1       0.7490628634E-04       1   13    1         0.2592166635E-02      0.1050707403E-01

    ------------------------------------------------
       NWT REQUIRED            2 OUTER ITERATIONS 
       AND A TOTAL OF          3 INNER ITERATIONS.
    ------------------------------------------------

 NO OUTPUT CONTROL FOR STRESS PERIOD    2   TIME STEP    6
 
 SOLVING FOR HEAD 
                                                   Max.-Head-Change                         Max.-Flux-Residual
  Residual-Control   Outer-Iter.   Inner-Iter.     Column Row Layer    Maximum-Head-Change  Column Row Layer    Maximum-Flux-Residual          L2-NORM 
          0                 1           2             4   13     1       0.5497336057E-02       4   13    1         0.3126570015E+00      0.7349364404E+00
          0                 2           1             6    2     1       0.7490336662E-04       1   13    1         0.2426768850E-02      0.1037867760E-01

    ------------------------------------------------
       NWT REQUIRED            2 OUTER ITERATIONS 
       AND A TOTAL OF          3 INNER ITERATIONS.
    ------------------------------------------------

 NO OUTPUT CONTROL FOR STRESS PERIOD    2   TIME STEP    7
 
 SOLVING FOR HEAD 
                                                   Max.-Head-Change                         Max.-Flux-Residual
  Residual-Control   Outer-Iter.   Inner-Iter.     Column Row Layer    Maximum-Head-Change  Column Row Layer    Maximum-Flux-Residual          L2-NORM 
          0                 1           2             1   13     1       0.5107065467E-02       4   13    1         0.2833470781E+00      0.6951098469E+00
          0                 2           1             6    2     1       0.7488908502E-04       1   13    1         0.2271335363E-02      0.1026616800E-01

    ------------------------------------------------
       NWT REQUIRED            2 OUTER ITERATIONS 
       AND A TOTAL OF          3 INNER ITERATIONS.
    ------------------------------------------------

 NO OUTPUT CONTROL FOR STRESS PERIOD    2   TIME STEP    8
 
 SOLVING FOR HEAD 
                                                   Max.-Head-Change                         Max.-Flux-Residual
  Residual-Control   Outer-Iter.   Inner-Iter.     Column Row Layer    Maximum-Head-Change  Column Row Layer    Maximum-Flux-Residual          L2-NORM 
          0                 1           2             1   13     1       0.4857925239E-02       1   13    1         0.2646479631E+00      0.6592451265E+00
          0                 2           1             6    2     1       0.7488450727E-04       1   13    1         0.2126458928E-02      0.1017183072E-01

    ------------------------------------------------
       NWT REQUIRED            2 OUTER ITERATIONS 
       AND A TOTAL OF          3 INNER ITERATIONS.
    ------------------------------------------------

 NO OUTPUT CONTROL FOR STRESS PERIOD    2   TIME STEP    9
 
 SOLVING FOR HEAD 
                                                   Max.-Head-Change                         Max.-Flux-Residual
  Residual-Control   Outer-Iter.   Inner-Iter.     Column Row Layer    Maximum-Head-Change  Column Row Layer    Maximum-Flux-Residual          L2-NORM 
          0                 1           2             1   13     1       0.4619604399E-02       1   13    1         0.2517041315E+00      0.6269369061E+00
          0                 2           1             6    2     1       0.7487908215E-04       6    2    1         0.1999002914E-02      0.1009092647E-01

    ------------------------------------------------
       NWT REQUIRED            2 OUTER ITERATIONS 
       AND A TOTAL OF          3 INNER ITERATIONS.
    ------------------------------------------------

 NO OUTPUT CONTROL FOR STRESS PERIOD    2   TIME STEP   10
 
 SOLVING FOR HEAD 
                                                   Max.-Head-Change                         Max.-Flux-Residual
  Residual-Control   Outer-Iter.   Inner-Iter.     Column Row Layer    Maximum-Head-Change  Column Row Layer    Maximum-Flux-Residual          L2-NORM 
          0                 1           2             1   13     1       0.4391793144E-02       1   13    1         0.2393273187E+00      0.5978070000E+00
          0                 2           1             6    2     1       0.7486231851E-04       6    2    1         0.1998576565E-02      0.9999203753E-02

    ------------------------------------------------
       NWT REQUIRED            2 OUTER ITERATIONS 
       AND A TOTAL OF          3 INNER ITERATIONS.
    ------------------------------------------------

 NO OUTPUT CONTROL FOR STRESS PERIOD    2   TIME STEP   11
 
 SOLVING FOR HEAD 
                                                   Max.-Head-Change                         Max.-Flux-Residual
  Residual-Control   Outer-Iter.   Inner-Iter.     Column Row Layer    Maximum-Head-Change  Column Row Layer    Maximum-Flux-Residual          L2-NORM 
          0                 1           2             1   13     1       0.4174170346E-02       1   13    1         0.2275006075E+00      0.5715357751E+00
          0                 2           1             6    2     1       0.7485524705E-04       6    2    1         0.1998411019E-02      0.9919074276E-02

    ------------------------------------------------
       NWT REQUIRED            2 OUTER ITERATIONS 
       AND A TOTAL OF          3 INNER ITERATIONS.
    ------------------------------------------------

 NO OUTPUT CONTROL FOR STRESS PERIOD    2   TIME STEP   12
 
 SOLVING FOR HEAD 
                                                   Max.-Head-Change                         Max.-Flux-Residual
  Residual-Control   Outer-Iter.   Inner-Iter.     Column Row Layer    Maximum-Head-Change  Column Row Layer    Maximum-Flux-Residual          L2-NORM 
          0                 1           2             1   13     1       0.3966369288E-02       1   13    1         0.2162045461E+00      0.5478077220E+00
          0                 2           1             6    2     1       0.7484731945E-04       6    2    1         0.1998222388E-02      0.9834271394E-02

    ------------------------------------------------
       NWT REQUIRED            2 OUTER ITERATIONS 
       AND A TOTAL OF          3 INNER ITERATIONS.
    ------------------------------------------------

 NO OUTPUT CONTROL FOR STRESS PERIOD    2   TIME STEP   13
 
 SOLVING FOR HEAD 
                                                   Max.-Head-Change                         Max.-Flux-Residual
  Residual-Control   Outer-Iter.   Inner-Iter.     Column Row Layer    Maximum-Head-Change  Column Row Layer    Maximum-Flux-Residual          L2-NORM 
          0                 1           2             1   13     1       0.3768039257E-02       1   13    1         0.2054204685E+00      0.5263649181E+00
          0                 2           1             6    2     1       0.7482800905E-04       6    2    1         0.1997729325E-02      0.9758052723E-02

    ------------------------------------------------
       NWT REQUIRED            2 OUTER ITERATIONS 
       AND A TOTAL OF          3 INNER ITERATIONS.
    ------------------------------------------------

 NO OUTPUT CONTROL FOR STRESS PERIOD    2   TIME STEP   14
 
 SOLVING FOR HEAD 
                                                   Max.-Head-Change                         Max.-Flux-Residual
  Residual-Control   Outer-Iter.   Inner-Iter.     Column Row Layer    Maximum-Head-Change  Column Row Layer    Maximum-Flux-Residual          L2-NORM 
          0                 1           2             1   13     1       0.3578850189E-02       1   13    1         0.1951308291E+00      0.5069540088E+00
          0                 2           1             6    2     1       0.7481838864E-04       6    2    1         0.1997495898E-02      0.9695296759E-02

    ------------------------------------------------
       NWT REQUIRED            2 OUTER ITERATIONS 
       AND A TOTAL OF          3 INNER ITERATIONS.
    ------------------------------------------------

 NO OUTPUT CONTROL FOR STRESS PERIOD    2   TIME STEP   15
 
 SOLVING FOR HEAD 
                                                   Max.-Head-Change                         Max.-Flux-Residual
  Residual-Control   Outer-Iter.   Inner-Iter.     Column Row Layer    Maximum-Head-Change  Column Row Layer    Maximum-Flux-Residual          L2-NORM 
          0                 1           2             2    2     1       0.3453657957E-02       1   13    1         0.1853184320E+00      0.4893610690E+00
          0                 2           1             6    2     1       0.7480791258E-04       6    2    1         0.1997239326E-02      0.9649208906E-02

    ------------------------------------------------
       NWT REQUIRED            2 OUTER ITERATIONS 
       AND A TOTAL OF          3 INNER ITERATIONS.
    ------------------------------------------------

 NO OUTPUT CONTROL FOR STRESS PERIOD    2   TIME STEP   16
 
 SOLVING FOR HEAD 
                                                   Max.-Head-Change                         Max.-Flux-Residual
  Residual-Control   Outer-Iter.   Inner-Iter.     Column Row Layer    Maximum-Head-Change  Column Row Layer    Maximum-Flux-Residual          L2-NORM 
          0                 1           2             2    2     1       0.3427216004E-02       2    2    1         0.1791879950E+00      0.4733948515E+00
          0                 2           1             6    2     1       0.7478604617E-04       6    2    1         0.1996678350E-02      0.9625342616E-02

    ------------------------------------------------
       NWT REQUIRED            2 OUTER ITERATIONS 
       AND A TOTAL OF          3 INNER ITERATIONS.
    ------------------------------------------------

 NO OUTPUT CONTROL FOR STRESS PERIOD    2   TIME STEP   17
 
 SOLVING FOR HEAD 
                                                   Max.-Head-Change                         Max.-Flux-Residual
  Residual-Control   Outer-Iter.   Inner-Iter.     Column Row Layer    Maximum-Head-Change  Column Row Layer    Maximum-Flux-Residual          L2-NORM 
          0                 1           2             2    2     1       0.3401110926E-02       2    2    1         0.1778138044E+00      0.4588854602E+00
          0                 2           1             6    2     1       0.7477384786E-04       6    2    1         0.1996376761E-02      0.9591392391E-02

    ------------------------------------------------
       NWT REQUIRED            2 OUTER ITERATIONS 
       AND A TOTAL OF          3 INNER ITERATIONS.
    ------------------------------------------------

 NO OUTPUT CONTROL FOR STRESS PERIOD    2   TIME STEP   18
 
 SOLVING FOR HEAD 
                                                   Max.-Head-Change                         Max.-Flux-Residual
  Residual-Control   Outer-Iter.   Inner-Iter.     Column Row Layer    Maximum-Head-Change  Column Row Layer    Maximum-Flux-Residual          L2-NORM 
          0                 1           2             2    2     1       0.3375422858E-02       2    2    1         0.1764616100E+00      0.4456697272E+00
          0                 2           1             6    2     1       0.7476073235E-04       6    2    1         0.1996051489E-02      0.9551026903E-02

    ------------------------------------------------
       NWT REQUIRED            2 OUTER ITERATIONS 
       AND A TOTAL OF          3 INNER ITERATIONS.
    ------------------------------------------------

 NO OUTPUT CONTROL FOR STRESS PERIOD    2   TIME STEP   19
 
 SOLVING FOR HEAD 
                                                   Max.-Head-Change                         Max.-Flux-Residual
  Residual-Control   Outer-Iter.   Inner-Iter.     Column Row Layer    Maximum-Head-Change  Column Row Layer    Maximum-Flux-Residual          L2-NORM 
          0                 1           2             2    2     1       0.3350144191E-02       2    2    1         0.1751310093E+00      0.4336222993E+00
          0                 2           1             6    2     1       0.7474687578E-04       6    2    1         0.1995703603E-02      0.9520726981E-02

    ------------------------------------------------
       NWT REQUIRED            2 OUTER ITERATIONS 
       AND A TOTAL OF          3 INNER ITERATIONS.
    ------------------------------------------------

 NO OUTPUT CONTROL FOR STRESS PERIOD    2   TIME STEP   20
 
 SOLVING FOR HEAD 
                                                   Max.-Head-Change                         Max.-Flux-Residual
  Residual-Control   Outer-Iter.   Inner-Iter.     Column Row Layer    Maximum-Head-Change  Column Row Layer    Maximum-Flux-Residual          L2-NORM 
          0                 1           2             2    2     1       0.3325267824E-02       2    2    1         0.1738216090E+00      0.4226227808E+00
          0                 2           1             6    2     1       0.7472157291E-04       6    2    1         0.1995050541E-02      0.9495513656E-02

    ------------------------------------------------
       NWT REQUIRED            2 OUTER ITERATIONS 
       AND A TOTAL OF          3 INNER ITERATIONS.
    ------------------------------------------------

 NO OUTPUT CONTROL FOR STRESS PERIOD    2   TIME STEP   21
 
 SOLVING FOR HEAD 
                                                   Max.-Head-Change                         Max.-Flux-Residual
  Residual-Control   Outer-Iter.   Inner-Iter.     Column Row Layer    Maximum-Head-Change  Column Row Layer    Maximum-Flux-Residual          L2-NORM 
          0                 1           2             2    2     1       0.3300786478E-02       2    2    1         0.1725330430E+00      0.4125492951E+00
          0                 2           1             6    2     1       0.7470592353E-04       6    2    1         0.1994656769E-02      0.9472792553E-02

    ------------------------------------------------
       NWT REQUIRED            2 OUTER ITERATIONS 
       AND A TOTAL OF          3 INNER ITERATIONS.
    ------------------------------------------------

 NO OUTPUT CONTROL FOR STRESS PERIOD    2   TIME STEP   22
 
 SOLVING FOR HEAD 
                                                   Max.-Head-Change                         Max.-Flux-Residual
  Residual-Control   Outer-Iter.   Inner-Iter.     Column Row Layer    Maximum-Head-Change  Column Row Layer    Maximum-Flux-Residual          L2-NORM 
          0                 1           2             2    2     1       0.3276605531E-02       2    2    1         0.1712603791E+00      0.4033090012E+00
          0                 2           1             6    2     1       0.7468940196E-04       6    2    1         0.1994238917E-02      0.9453229474E-02

    ------------------------------------------------
       NWT REQUIRED            2 OUTER ITERATIONS 
       AND A TOTAL OF          3 INNER ITERATIONS.
    ------------------------------------------------

 NO OUTPUT CONTROL FOR STRESS PERIOD    2   TIME STEP   23
 
 SOLVING FOR HEAD 
                                                   Max.-Head-Change                         Max.-Flux-Residual
  Residual-Control   Outer-Iter.   Inner-Iter.     Column Row Layer    Maximum-Head-Change  Column Row Layer    Maximum-Flux-Residual          L2-NORM 
          0                 1           2             2    2     1       0.3252806862E-02       2    2    1         0.1700078172E+00      0.3948116816E+00
          0                 2           1             6    2     1       0.7466146158E-04       6    2    1         0.1993516233E-02      0.9434478222E-02

    ------------------------------------------------
       NWT REQUIRED            2 OUTER ITERATIONS 
       AND A TOTAL OF          3 INNER ITERATIONS.
    ------------------------------------------------

 NO OUTPUT CONTROL FOR STRESS PERIOD    2   TIME STEP   24
 
 SOLVING FOR HEAD 
                                                   Max.-Head-Change                         Max.-Flux-Residual
  Residual-Control   Outer-Iter.   Inner-Iter.     Column Row Layer    Maximum-Head-Change  Column Row Layer    Maximum-Flux-Residual          L2-NORM 
          0                 1           2             2    2     1       0.3229383293E-02       2    2    1         0.1687750597E+00      0.3869808090E+00
          0                 2           1             6    2     1       0.7464321728E-04       6    2    1         0.1993052198E-02      0.9418839289E-02

    ------------------------------------------------
       NWT REQUIRED            2 OUTER ITERATIONS 
       AND A TOTAL OF          3 INNER ITERATIONS.
    ------------------------------------------------

 NO OUTPUT CONTROL FOR STRESS PERIOD    2   TIME STEP   25
 
 SOLVING FOR HEAD 
                                                   Max.-Head-Change                         Max.-Flux-Residual
  Residual-Control   Outer-Iter.   Inner-Iter.     Column Row Layer    Maximum-Head-Change  Column Row Layer    Maximum-Flux-Residual          L2-NORM 
          0                 1           2             2    2     1       0.3206327973E-02       2    2    1         0.1675617240E+00      0.3797544523E+00
          0                 2           1             6    2     1       0.7462409178E-04       6    2    1         0.1992565200E-02      0.9404889313E-02

    ------------------------------------------------
       NWT REQUIRED            2 OUTER ITERATIONS 
       AND A TOTAL OF          3 INNER ITERATIONS.
    ------------------------------------------------

 NO OUTPUT CONTROL FOR STRESS PERIOD    2   TIME STEP   26
 
 SOLVING FOR HEAD 
                                                   Max.-Head-Change                         Max.-Flux-Residual
  Residual-Control   Outer-Iter.   Inner-Iter.     Column Row Layer    Maximum-Head-Change  Column Row Layer    Maximum-Flux-Residual          L2-NORM 
          0                 1           2             2    2     1       0.3183547588E-02       2    2    1         0.1663629038E+00      0.3730614050E+00
          0                 2           1             6    2     1       0.7459355501E-04       6    2    1         0.1991773149E-02      0.9391990720E-02

    ------------------------------------------------
       NWT REQUIRED            2 OUTER ITERATIONS 
       AND A TOTAL OF          3 INNER ITERATIONS.
    ------------------------------------------------

 NO OUTPUT CONTROL FOR STRESS PERIOD    2   TIME STEP   27
 
 SOLVING FOR HEAD 
                                                   Max.-Head-Change                         Max.-Flux-Residual
  Residual-Control   Outer-Iter.   Inner-Iter.     Column Row Layer    Maximum-Head-Change  Column Row Layer    Maximum-Flux-Residual          L2-NORM 
          0                 1           2             2    2     1       0.3161123465E-02       2    2    1         0.1651828720E+00      0.3668567419E+00
          0                 2           1             6    2     1       0.7457270896E-04       6    2    1         0.1991239922E-02      0.9380687979E-02

    ------------------------------------------------
       NWT REQUIRED            2 OUTER ITERATIONS 
       AND A TOTAL OF          3 INNER ITERATIONS.
    ------------------------------------------------

 NO OUTPUT CONTROL FOR STRESS PERIOD    2   TIME STEP   28
 
 SOLVING FOR HEAD 
                                                   Max.-Head-Change                         Max.-Flux-Residual
  Residual-Control   Outer-Iter.   Inner-Iter.     Column Row Layer    Maximum-Head-Change  Column Row Layer    Maximum-Flux-Residual          L2-NORM 
          0                 1           2             2    2     1       0.3139136553E-02       2    2    1         0.1640258432E+00      0.3610901851E+00
          0                 2           1             6    2     1       0.7455104011E-04       6    2    1         0.1990683576E-02      0.9370712133E-02

    ------------------------------------------------
       NWT REQUIRED            2 OUTER ITERATIONS 
       AND A TOTAL OF          3 INNER ITERATIONS.
    ------------------------------------------------

 NO OUTPUT CONTROL FOR STRESS PERIOD    2   TIME STEP   29
 
 SOLVING FOR HEAD 
                                                   Max.-Head-Change                         Max.-Flux-Residual
  Residual-Control   Outer-Iter.   Inner-Iter.     Column Row Layer    Maximum-Head-Change  Column Row Layer    Maximum-Flux-Residual          L2-NORM 
          0                 1           2             2    2     1       0.3117318298E-02       2    2    1         0.1628778015E+00      0.3557081608E+00
          0                 2           1             6    2     1       0.7451798359E-04       6    2    1         0.1989823772E-02      0.9350059909E-02

    ------------------------------------------------
       NWT REQUIRED            2 OUTER ITERATIONS 
       AND A TOTAL OF          3 INNER ITERATIONS.
    ------------------------------------------------

 NO OUTPUT CONTROL FOR STRESS PERIOD    2   TIME STEP   30



 STREAM LISTING     PERIOD      2   STEP       30

 LAYER ROW COL. STREAM  RCH.  FLOW INTO     FLOW TO   FLOW OUT OF   OVRLND.     DIRECT     STREAM       STREAM     STREAM     STREAM   STREAMBED  STREAMBED
                SEG.NO.  NO.  STRM. RCH.    AQUIFER    STRM. RCH.    RUNOFF     PRECIP       ET          HEAD       DEPTH      WIDTH   CONDCTNC.   GRADIENT

   1    1    1     1     1    2.2000E+01  2.3088E-01   2.1769E+01  0.000E+00  0.000E+00  0.000E+00  1.09418E+03  1.132E+00  1.242E+01  5.588E-02  1.377E+00
   1    2    2     1     2    2.1769E+01  3.5689E-01   2.1412E+01  0.000E+00  0.000E+00  0.000E+00  1.08919E+03  1.127E+00  1.235E+01  8.648E-02  1.376E+00
   1    3    3     1     3    2.1412E+01  3.0372E-01   2.1109E+01  0.000E+00  0.000E+00  0.000E+00  1.08354E+03  1.121E+00  1.228E+01  7.369E-02  1.374E+00
   1    3    4     1     4    2.1109E+01  2.7914E-01   2.0829E+01  0.000E+00  0.000E+00  0.000E+00  1.07852E+03  1.117E+00  1.222E+01  6.781E-02  1.372E+00
   1    4    5     2     1    1.8829E+01  3.1306E-01   1.8516E+01  0.000E+00  0.000E+00  0.000E+00  1.07295E+03  1.014E+00  1.200E+01  7.800E-02  1.338E+00
   1    5    6     2     2    1.8516E+01  2.4027E-01   1.8276E+01  0.000E+00  0.000E+00  0.000E+00  1.06751E+03  1.005E+00  1.200E+01  6.000E-02  1.335E+00
   1    6    6     2     3    1.8276E+01  2.3980E-01   1.8036E+01  0.000E+00  0.000E+00  0.000E+00  1.06279E+03  9.967E-01  1.200E+01  6.000E-02  1.332E+00
   1    7    6     2     4    1.8036E+01  2.3933E-01   1.7797E+01  0.000E+00  0.000E+00  0.000E+00  1.05806E+03  9.888E-01  1.200E+01  6.000E-02  1.330E+00
   1    8    6     2     5    1.7797E+01  2.3885E-01   1.7558E+01  0.000E+00  0.000E+00  0.000E+00  1.05334E+03  9.808E-01  1.200E+01  6.000E-02  1.327E+00
   1    3    5     3     1    2.0000E+00  2.8252E-01   1.7175E+00  0.000E+00  0.000E+00  0.000E+00  1.07555E+03  1.909E+00  9.636E+00  7.227E-02  1.955E+00
   1    3    6     3     2    1.7175E+00  2.4905E-01   1.4684E+00  0.000E+00  0.000E+00  0.000E+00  1.07264E+03  1.727E+00  8.909E+00  6.682E-02  1.864E+00
   1    3    7     3     3    1.4684E+00  1.9718E-01   1.2712E+00  0.000E+00  0.000E+00  0.000E+00  1.06987E+03  1.555E+00  8.218E+00  5.547E-02  1.777E+00
   1    4    8     3     4    1.2712E+00  2.2567E-01   1.0456E+00  0.000E+00  0.000E+00  0.000E+00  1.06682E+03  1.364E+00  7.455E+00  6.709E-02  1.682E+00
   1    5    8     3     5    1.0456E+00  1.5790E-01   8.8768E-01  0.000E+00  0.000E+00  0.000E+00  1.06362E+03  1.164E+00  6.655E+00  4.991E-02  1.582E+00
   1    6    8     3     6    8.8768E-01  5.5980E-02   8.3170E-01  0.000E+00  0.000E+00  0.000E+00  1.06158E+03  1.036E+00  6.145E+00  1.844E-02  1.518E+00
   1    5   10     4     1    1.0000E+01  9.0919E-02   9.9091E+00  0.000E+00  0.000E+00  0.000E+00  1.07836E+03  6.368E-01  1.000E+01  2.500E-02  1.212E+00
   1    5    9     4     2    9.9091E+00  1.8158E-01   9.7275E+00  0.000E+00  0.000E+00  0.000E+00  1.07154E+03  6.315E-01  1.000E+01  5.000E-02  1.211E+00
   1    6    8     4     3    9.7275E+00  1.2689E-01   9.6006E+00  0.000E+00  0.000E+00  0.000E+00  1.06381E+03  6.256E-01  1.000E+01  3.500E-02  1.209E+00
   1    6    8     5     1    1.0432E+01  2.2686E-01   1.0205E+01  0.000E+00  0.000E+00  0.000E+00  1.05868E+03  6.790E-01  1.542E+01  6.166E-02  1.226E+00
   1    7    7     5     2    1.0205E+01  2.7894E-01   9.9265E+00  0.000E+00  0.000E+00  0.000E+00  1.05417E+03  6.732E-01  1.519E+01  7.594E-02  1.224E+00
   1    8    7     5     3    9.9265E+00  1.9221E-01   9.7343E+00  0.000E+00  0.000E+00  0.000E+00  1.04992E+03  6.676E-01  1.497E+01  5.241E-02  1.223E+00
   1    8    6     5     4    9.7343E+00  1.3577E-01   9.5985E+00  0.000E+00  0.000E+00  0.000E+00  1.04691E+03  6.637E-01  1.482E+01  3.706E-02  1.221E+00
   1    9    6     6     1    2.7157E+01  2.5677E-01   2.6900E+01  0.000E+00  0.000E+00  0.000E+00  1.04401E+03  1.280E+00  1.200E+01  6.000E-02  1.427E+00
   1   10    7     6     2    2.6900E+01  2.5634E-01   2.6643E+01  0.000E+00  0.000E+00  0.000E+00  1.03945E+03  1.272E+00  1.200E+01  6.000E-02  1.424E+00
   1   11    7     6     3    2.6643E+01  2.5590E-01   2.6388E+01  0.000E+00  0.000E+00  0.000E+00  1.03490E+03  1.265E+00  1.200E+01  6.000E-02  1.422E+00
   1   12    7     6     4    2.6388E+01  2.5546E-01   2.6132E+01  0.000E+00  0.000E+00  0.000E+00  1.03035E+03  1.258E+00  1.200E+01  6.000E-02  1.419E+00
   1   13    7     6     5    2.6132E+01  2.2780E-03   2.6130E+01  0.000E+00  0.000E+00  0.000E+00  1.02716E+03  1.254E+00  1.200E+01  2.400E-02  3.164E-02
   1   14    9     7     1    1.5000E+02  1.3358E+00   1.4866E+02  0.000E+00  0.000E+00  0.000E+00  1.03987E+03  2.288E+00  5.529E+01  5.593E-01  7.961E-01
   1   13    8     7     2    1.4866E+02  1.8385E+00   1.4683E+02  0.000E+00  0.000E+00  0.000E+00  1.03478E+03  2.279E+00  5.526E+01  6.148E-01  9.969E-01
   1   13    7     7     3    1.4683E+02  1.4641E+00   1.4536E+02  0.000E+00  0.000E+00  0.000E+00  1.02969E+03  2.270E+00  5.522E+01  5.585E-01  8.739E-01
   1   13    6     8     1    1.7149E+02  9.1667E-01   1.7057E+02  0.000E+00  0.000E+00  0.000E+00  1.02483E+03  2.959E+00  4.290E+01  4.372E-01  6.989E-01
   1   13    5     8     2    1.7057E+02  1.6299E-01   1.7041E+02  0.000E+00  0.000E+00  0.000E+00  1.01858E+03  2.955E+00  4.285E+01  4.367E-01  1.244E-01
   1   13    4     8     3    1.7041E+02 -2.5207E+00   1.7293E+02  0.000E+00  0.000E+00  0.000E+00  1.01234E+03  2.963E+00  4.296E+01  4.378E+00 -1.919E-01
   1   13    3     8     4    1.7293E+02 -3.6632E+00   1.7660E+02  0.000E+00  0.000E+00  0.000E+00  1.00611E+03  2.983E+00  4.325E+01  4.408E+00 -2.770E-01
   1   13    2     8     5    1.7660E+02 -2.5308E+00   1.7913E+02  0.000E+00  0.000E+00  0.000E+00  9.99878E+02  3.003E+00  4.354E+01  4.437E+00 -1.901E-01
   1   13    1     8     6    1.7913E+02 -1.8988E+00   1.8103E+02  0.000E+00  0.000E+00  0.000E+00  9.94892E+02  3.017E+00  4.374E+01  2.674E+00 -2.367E-01





UNSATURATED ZONE PACKAGE VOLUMETRIC BUDGET FOR  TIME STEP    30 STRESS PERIOD    2
  ------------------------------------------------------------------------------



     CUMULATIVE VOLUMES      L**3       RATES FOR THIS TIME STEP      L**3/T
     ------------------                 ------------------------

           IN:                                      IN:
           ---                                      ---
        INFILTRATION =     2300454.0000          INFILTRATION =           0.8475

          OUT:                                     OUT:
          ----                                     ----
              UZF ET =        7693.8266                UZF ET =           0.0057
        UZF RECHARGE =     1106348.3826          UZF RECHARGE =           0.3418

            IN - OUT =     1186411.7908              IN - OUT =           0.5000

          STORAGE:                                 STORAGE:
          --------                                 --------
      STORAGE CHANGE =     1186411.7859        STORAGE CHANGE =           0.5000

 PERCENT DISCREPANCY IS DIFFERENCE BETWEEN IN-OUT MINUS CHANGE IN STORAGE
 DIVIDED BY THE AVERAGE OF IN AND OUT TIMES 100

 PERCENT DISCREPANCY =           0.00     PERCENT DISCREPANCY =          -0.00






1
  VOLUMETRIC BUDGET FOR ENTIRE MODEL AT END OF TIME STEP   30, STRESS PERIOD   2
  ------------------------------------------------------------------------------

     CUMULATIVE VOLUMES      L**3       RATES FOR THIS TIME STEP      L**3/T
     ------------------                 ------------------------

           IN:                                      IN:
           ---                                      ---
               AWU WELLS =           0.0000                 AWU WELLS =           0.0000
      DIVERSION SEGMENTS =           0.0000        DIVERSION SEGMENTS =           0.0000
           GW IRRIGATION =           0.0000             GW IRRIGATION =           0.0000
           SW IRRIGATION =           0.0000             SW IRRIGATION =           0.0000
        SYSTEM LOSSES GW =           0.0000          SYSTEM LOSSES GW =           0.0000
        SYSTEM LOSSES SW =           0.0000          SYSTEM LOSSES SW =           0.0000

                TOTAL IN =           0.0000                  TOTAL IN =           0.0000

          OUT:                                     OUT:
          ----                                     ----
               AWU WELLS =           0.0000                 AWU WELLS =           0.0000
      DIVERSION SEGMENTS =           0.0000        DIVERSION SEGMENTS =           0.0000
           GW IRRIGATION =           0.0000             GW IRRIGATION =           0.0000
           SW IRRIGATION =           0.0000             SW IRRIGATION =           0.0000
        SYSTEM LOSSES GW =           0.0000          SYSTEM LOSSES GW =           0.0000
        SYSTEM LOSSES SW =           0.0000          SYSTEM LOSSES SW =           0.0000

               TOTAL OUT =           0.0000                 TOTAL OUT =           0.0000

                IN - OUT =           0.0000                  IN - OUT =           0.0000

     PERCENT DISCREPANCY =           0.00         PERCENT DISCREPANCY =           0.00



1
  VOLUMETRIC BUDGET FOR ENTIRE MODEL AT END OF TIME STEP   30, STRESS PERIOD   2
  ------------------------------------------------------------------------------

     CUMULATIVE VOLUMES      L**3       RATES FOR THIS TIME STEP      L**3/T
     ------------------                 ------------------------

           IN:                                      IN:
           ---                                      ---
             STORAGE     =     1467040.0000               STORAGE     =           0.4948
       CONSTANT HEAD     =           0.0000         CONSTANT HEAD     =           0.0000
     HEAD DEP BOUNDS     =      775636.9375       HEAD DEP BOUNDS     =           0.2858
      STREAM LEAKAGE     =    31471744.0000        STREAM LEAKAGE     =          11.5882
        UZF RECHARGE     =     1106348.3750          UZF RECHARGE     =           0.3418
               GW ET     =           0.0000                 GW ET     =           0.0000
     SURFACE LEAKAGE     =           0.0000       SURFACE LEAKAGE     =           0.0000
           AWU WELLS     =           0.0000             AWU WELLS     =           0.0000

                TOTAL IN =    34820768.0000                  TOTAL IN =          12.7106

          OUT:                                     OUT:
          ----                                     ----
             STORAGE     =     6392107.0000               STORAGE     =           1.8008
       CONSTANT HEAD     =           0.0000         CONSTANT HEAD     =           0.0000
     HEAD DEP BOUNDS     =      779559.6250       HEAD DEP BOUNDS     =           0.2889
      STREAM LEAKAGE     =    27545228.0000        STREAM LEAKAGE     =          10.6135
        UZF RECHARGE     =           0.0000          UZF RECHARGE     =           0.0000
               GW ET     =      111859.0469                 GW ET     =       1.0047E-02
     SURFACE LEAKAGE     =           0.0000       SURFACE LEAKAGE     =           0.0000
           AWU WELLS     =           0.0000             AWU WELLS     =           0.0000

               TOTAL OUT =    34828756.0000                 TOTAL OUT =          12.7132

                IN - OUT =       -7988.0000                  IN - OUT =      -2.5768E-03

     PERCENT DISCREPANCY =          -0.02         PERCENT DISCREPANCY =          -0.02






         TIME SUMMARY AT END OF TIME STEP   30 IN STRESS PERIOD    2
                    SECONDS     MINUTES      HOURS       DAYS        YEARS
                    -----------------------------------------------------------
   TIME STEP LENGTH  87600.      1460.0      24.333      1.0139     2.77588E-03
 STRESS PERIOD TIME 2.62800E+06  43800.      730.00      30.417     8.32763E-02
         TOTAL TIME 2.71440E+06  45240.      754.00      31.417     8.60141E-02
1
1
                            STRESS PERIOD NO.    3, LENGTH =   2628000.    
                            -----------------------------------------------

                              NUMBER OF TIME STEPS =    30

                               MULTIPLIER FOR DELT =     1.000

                            INITIAL TIME STEP SIZE =   87600.00    

 REUSING NON-PARAMETER GHB CELLS FROM LAST STRESS PERIOD

      2 GHB CELLS

 REUSING STREAM SEGMENT DATA FROM LAST STRESS PERIOD



            AREAL INFILTRATION RATE
 READING ON UNIT   19 WITH FORMAT: (10F4.0)            

            1           2           3           4           5           6           7           8           9          10
 ........................................................................................................................
   1   1.0000E-10  2.0000E-10   0.000       0.000       0.000       0.000       0.000       0.000       0.000       0.000    
   2   2.0000E-10  1.0000E-10  2.0000E-10   0.000       0.000      8.0000E-10  8.0000E-10  5.0000E-10   0.000       0.000    
   3    0.000      5.0000E-10  1.0000E-10  1.0000E-10  8.0000E-10  8.0000E-10  5.0000E-10  5.0000E-10   0.000       0.000    
   4   8.0000E-10  5.0000E-10  1.0000E-10  1.0000E-10  1.0000E-10  1.0000E-10  1.0000E-10  1.0000E-10  2.0000E-10   0.000    
   5   8.0000E-10  5.0000E-10  1.0000E-10  1.0000E-10  1.0000E-10  1.0000E-10  1.0000E-10  1.0000E-10  1.0000E-10  1.0000E-10
   6   8.0000E-10  5.0000E-10  5.0000E-10  2.0000E-10  2.0000E-10  1.0000E-10  1.0000E-10  1.0000E-10  1.0000E-10  5.0000E-10
   7   8.0000E-10  5.0000E-10  5.0000E-10  2.0000E-10  2.0000E-10  1.0000E-10  1.0000E-10  2.0000E-10  2.0000E-10   0.000    
   8    0.000      5.0000E-10  5.0000E-10  2.0000E-10  2.0000E-10  1.0000E-10  1.0000E-10  2.0000E-10  5.0000E-10   0.000    
   9    0.000      5.0000E-10  5.0000E-10  2.0000E-10  2.0000E-10  1.0000E-10  1.0000E-10  2.0000E-10  5.0000E-10   0.000    
  10    0.000      5.0000E-10  5.0000E-10  2.0000E-10  2.0000E-10  1.0000E-10  1.0000E-10  2.0000E-10  5.0000E-10  8.0000E-10
  11    0.000      1.0000E-10  1.0000E-10  1.0000E-10  1.0000E-10  1.0000E-10  1.0000E-10  2.0000E-10  5.0000E-10   0.000    
  12   1.0000E-10  1.0000E-10  1.0000E-10  1.0000E-10  1.0000E-10  1.0000E-10  1.0000E-10  1.0000E-10  2.0000E-10   0.000    
  13   1.0000E-10  1.0000E-10  2.0000E-10  2.0000E-10  2.0000E-10  2.0000E-10  2.0000E-10  1.0000E-10  1.0000E-10   0.000    
  14    0.000      2.0000E-10  5.0000E-10  5.0000E-10  5.0000E-10  5.0000E-10  5.0000E-10  2.0000E-10  1.0000E-10   0.000    
  15    0.000       0.000      8.0000E-10  8.0000E-10  8.0000E-10  8.0000E-10   0.000       0.000       0.000       0.000    

                  ET RATE =  1.000000E-10

 USING ET EXTINCTION DEPTH FROM PREVIOUS STRESS PERIOD. CURRENT PERIOD IS:       3

 USING EXTINCTION WATER CONTENT FROM PREVIOUS STRESS PERIOD. CURRENT PERIOD IS:       3

 PROCESSING AWU STRESS PERIOD DATA

 READING AWU STRESS PERIOD DATA

 READING IRRIGATION WELL

 END PROCESSING AWU STRESS PERIOD DATA OPTIONS
 
 SOLVING FOR HEAD 
                                                   Max.-Head-Change                         Max.-Flux-Residual
  Residual-Control   Outer-Iter.   Inner-Iter.     Column Row Layer    Maximum-Head-Change  Column Row Layer    Maximum-Flux-Residual          L2-NORM 
          0                 1           2             4   13     1       0.4395824867E-02       4   13    1         0.2507378804E+00      0.6426094766E+00
          0                 2           1             6    2     1       0.7449465501E-04       2    2    1         0.2099553360E-02      0.1009770648E-01

    ------------------------------------------------
       NWT REQUIRED            2 OUTER ITERATIONS 
       AND A TOTAL OF          3 INNER ITERATIONS.
    ------------------------------------------------

 NO OUTPUT CONTROL FOR STRESS PERIOD    3   TIME STEP    1
 
 SOLVING FOR HEAD 
                                                   Max.-Head-Change                         Max.-Flux-Residual
  Residual-Control   Outer-Iter.   Inner-Iter.     Column Row Layer    Maximum-Head-Change  Column Row Layer    Maximum-Flux-Residual          L2-NORM 
          0                 1           2             4   13     1       0.7971809641E-02       4   13    1         0.4566988690E+00      0.9897869886E+00
          0                 2           1             6    2     1       0.7447045838E-04       1   13    1         0.3001768856E-02      0.1118975982E-01

    ------------------------------------------------
       NWT REQUIRED            2 OUTER ITERATIONS 
       AND A TOTAL OF          3 INNER ITERATIONS.
    ------------------------------------------------

 NO OUTPUT CONTROL FOR STRESS PERIOD    3   TIME STEP    2
 
 SOLVING FOR HEAD 
                                                   Max.-Head-Change                         Max.-Flux-Residual
  Residual-Control   Outer-Iter.   Inner-Iter.     Column Row Layer    Maximum-Head-Change  Column Row Layer    Maximum-Flux-Residual          L2-NORM 
          0                 1           2             2   13     1       0.7177651939E-02       4   13    1         0.4105657620E+00      0.9317972857E+00
          0                 2           1             3    4     1       0.7605221962E-04       1   13    1         0.2794220597E-02      0.1109280465E-01

    ------------------------------------------------
       NWT REQUIRED            2 OUTER ITERATIONS 
       AND A TOTAL OF          3 INNER ITERATIONS.
    ------------------------------------------------

 NO OUTPUT CONTROL FOR STRESS PERIOD    3   TIME STEP    3
 
 SOLVING FOR HEAD 
                                                   Max.-Head-Change                         Max.-Flux-Residual
  Residual-Control   Outer-Iter.   Inner-Iter.     Column Row Layer    Maximum-Head-Change  Column Row Layer    Maximum-Flux-Residual          L2-NORM 
          0                 1           2             2   13     1       0.6585802537E-02       2   13    1         0.3712761241E+00      0.8803545025E+00
          0                 2           1             3    4     1       0.7906452926E-04       1   13    1         0.2602510143E-02      0.1101872412E-01

    ------------------------------------------------
       NWT REQUIRED            2 OUTER ITERATIONS 
       AND A TOTAL OF          3 INNER ITERATIONS.
    ------------------------------------------------

 NO OUTPUT CONTROL FOR STRESS PERIOD    3   TIME STEP    4
 
 SOLVING FOR HEAD 
                                                   Max.-Head-Change                         Max.-Flux-Residual
  Residual-Control   Outer-Iter.   Inner-Iter.     Column Row Layer    Maximum-Head-Change  Column Row Layer    Maximum-Flux-Residual          L2-NORM 
          0                 1           2             2   13     1       0.6043544537E-02       2   13    1         0.3406518368E+00      0.8347297252E+00
          0                 2           1             3    4     1       0.8196265296E-04       2    2    1         0.2560284087E-02      0.1096327257E-01

    ------------------------------------------------
       NWT REQUIRED            2 OUTER ITERATIONS 
       AND A TOTAL OF          3 INNER ITERATIONS.
    ------------------------------------------------

 NO OUTPUT CONTROL FOR STRESS PERIOD    3   TIME STEP    5
 
 SOLVING FOR HEAD 
                                                   Max.-Head-Change                         Max.-Flux-Residual
  Residual-Control   Outer-Iter.   Inner-Iter.     Column Row Layer    Maximum-Head-Change  Column Row Layer    Maximum-Flux-Residual          L2-NORM 
          0                 1           2             2   13     1       0.5546865173E-02       2   13    1         0.3126037080E+00      0.7942834600E+00
          0                 2           1             3    4     1       0.8474893750E-04       2    2    1         0.2543163721E-02      0.1092289743E-01

    ------------------------------------------------
       NWT REQUIRED            2 OUTER ITERATIONS 
       AND A TOTAL OF          3 INNER ITERATIONS.
    ------------------------------------------------

 NO OUTPUT CONTROL FOR STRESS PERIOD    3   TIME STEP    6
 
 SOLVING FOR HEAD 
                                                   Max.-Head-Change                         Max.-Flux-Residual
  Residual-Control   Outer-Iter.   Inner-Iter.     Column Row Layer    Maximum-Head-Change  Column Row Layer    Maximum-Flux-Residual          L2-NORM 
          0                 1           2             2    2     1       0.5245727571E-02       2   13    1         0.2869060492E+00      0.7584226576E+00
          0                 2           1             3    4     1       0.8748256517E-04       2    2    1         0.2526309411E-02      0.1089677257E-01

    ------------------------------------------------
       NWT REQUIRED            2 OUTER ITERATIONS 
       AND A TOTAL OF          3 INNER ITERATIONS.
    ------------------------------------------------

 NO OUTPUT CONTROL FOR STRESS PERIOD    3   TIME STEP    7
 
 SOLVING FOR HEAD 
                                                   Max.-Head-Change                         Max.-Flux-Residual
  Residual-Control   Outer-Iter.   Inner-Iter.     Column Row Layer    Maximum-Head-Change  Column Row Layer    Maximum-Flux-Residual          L2-NORM 
          0                 1           2             2    2     1       0.5208324150E-02       2    2    1         0.2721813115E+00      0.7266331374E+00
          0                 2           1             3    4     1       0.9005238736E-04       2    2    1         0.2509675482E-02      0.1088005645E-01

    ------------------------------------------------
       NWT REQUIRED            2 OUTER ITERATIONS 
       AND A TOTAL OF          3 INNER ITERATIONS.
    ------------------------------------------------

 NO OUTPUT CONTROL FOR STRESS PERIOD    3   TIME STEP    8
 
 SOLVING FOR HEAD 
                                                   Max.-Head-Change                         Max.-Flux-Residual
  Residual-Control   Outer-Iter.   Inner-Iter.     Column Row Layer    Maximum-Head-Change  Column Row Layer    Maximum-Flux-Residual          L2-NORM 
          0                 1           2             2    2     1       0.5171509555E-02       2    2    1         0.2702438202E+00      0.6984284600E+00
          0                 2           1             3    4     1       0.9257508413E-04       2    2    1         0.2493297040E-02      0.1087391661E-01

    ------------------------------------------------
       NWT REQUIRED            2 OUTER ITERATIONS 
       AND A TOTAL OF          3 INNER ITERATIONS.
    ------------------------------------------------

 NO OUTPUT CONTROL FOR STRESS PERIOD    3   TIME STEP    9
 
 SOLVING FOR HEAD 
                                                   Max.-Head-Change                         Max.-Flux-Residual
  Residual-Control   Outer-Iter.   Inner-Iter.     Column Row Layer    Maximum-Head-Change  Column Row Layer    Maximum-Flux-Residual          L2-NORM 
          0                 1           2             2    2     1       0.5135273104E-02       2    2    1         0.2683368210E+00      0.6733842919E+00
          0                 2           1             3    4     1       0.9499545221E-04       3    4    1         0.2522528366E-02      0.1085311468E-01

    ------------------------------------------------
       NWT REQUIRED            2 OUTER ITERATIONS 
       AND A TOTAL OF          3 INNER ITERATIONS.
    ------------------------------------------------

 NO OUTPUT CONTROL FOR STRESS PERIOD    3   TIME STEP   10
 
 SOLVING FOR HEAD 
                                                   Max.-Head-Change                         Max.-Flux-Residual
  Residual-Control   Outer-Iter.   Inner-Iter.     Column Row Layer    Maximum-Head-Change  Column Row Layer    Maximum-Flux-Residual          L2-NORM 
          0                 1           2             2    2     1       0.5099605094E-02       2    2    1         0.2664597604E+00      0.6511246348E+00
          0                 2           1             3    4     1       0.9737250982E-04       3    4    1         0.2586002389E-02      0.1082780402E-01

    ------------------------------------------------
       NWT REQUIRED            2 OUTER ITERATIONS 
       AND A TOTAL OF          3 INNER ITERATIONS.
    ------------------------------------------------

 NO OUTPUT CONTROL FOR STRESS PERIOD    3   TIME STEP   11
 
 SOLVING FOR HEAD 
                                                   Max.-Head-Change                         Max.-Flux-Residual
  Residual-Control   Outer-Iter.   Inner-Iter.     Column Row Layer    Maximum-Head-Change  Column Row Layer    Maximum-Flux-Residual          L2-NORM 
          0                 1           2             2    2     1       0.5064407529E-02       2    2    1         0.2646075864E+00      0.6313070844E+00
          0                 2           1             3    4     1       0.9959428473E-04       3    4    1         0.2645338149E-02      0.1084379225E-01

    ------------------------------------------------
       NWT REQUIRED            2 OUTER ITERATIONS 
       AND A TOTAL OF          3 INNER ITERATIONS.
    ------------------------------------------------

 NO OUTPUT CONTROL FOR STRESS PERIOD    3   TIME STEP   12
 
 SOLVING FOR HEAD 
                                                   Max.-Head-Change                         Max.-Flux-Residual
  Residual-Control   Outer-Iter.   Inner-Iter.     Column Row Layer    Maximum-Head-Change  Column Row Layer    Maximum-Flux-Residual          L2-NORM 
          0                 1           2             2    2     1       0.5029758878E-02       2    2    1         0.2627843189E+00      0.6136385008E+00
          0                 2           1             3    4     1       0.1017791338E-03       3    4    1         0.2703672173E-02      0.1089774152E-01
          0                 3           1             3    4     1       0.1163488136E-04       3    4    1         0.3104964534E-03      0.8333806179E-03

    ------------------------------------------------
       NWT REQUIRED            3 OUTER ITERATIONS 
       AND A TOTAL OF          4 INNER ITERATIONS.
    ------------------------------------------------

 NO OUTPUT CONTROL FOR STRESS PERIOD    3   TIME STEP   13
 
 SOLVING FOR HEAD 
                                                   Max.-Head-Change                         Max.-Flux-Residual
  Residual-Control   Outer-Iter.   Inner-Iter.     Column Row Layer    Maximum-Head-Change  Column Row Layer    Maximum-Flux-Residual          L2-NORM 
          0                 1           2             2    2     1       0.4995576880E-02       2    2    1         0.2609856619E+00      0.5978586871E+00
          0                 2           1             3    4     1       0.1038322303E-03       3    4    1         0.2758474485E-02      0.1091185143E-01
          0                 3           1             3    4     1       0.1186897979E-04       3    4    1         0.3167358129E-03      0.8476939136E-03

    ------------------------------------------------
       NWT REQUIRED            3 OUTER ITERATIONS 
       AND A TOTAL OF          4 INNER ITERATIONS.
    ------------------------------------------------

 NO OUTPUT CONTROL FOR STRESS PERIOD    3   TIME STEP   14
 
 SOLVING FOR HEAD 
                                                   Max.-Head-Change                         Max.-Flux-Residual
  Residual-Control   Outer-Iter.   Inner-Iter.     Column Row Layer    Maximum-Head-Change  Column Row Layer    Maximum-Flux-Residual          L2-NORM 
          0                 1           2             2    2     1       0.4962012618E-02       2    2    1         0.2592195828E+00      0.5837302349E+00
          0                 2           1             3    4     1       0.1057952823E-03       3    4    1         0.2810879126E-02      0.1092910955E-01
          0                 3           1             3    4     1       0.1209292047E-04       3    4    1         0.3227009583E-03      0.8575137935E-03

    ------------------------------------------------
       NWT REQUIRED            3 OUTER ITERATIONS 
       AND A TOTAL OF          4 INNER ITERATIONS.
    ------------------------------------------------

 NO OUTPUT CONTROL FOR STRESS PERIOD    3   TIME STEP   15
 
 SOLVING FOR HEAD 
                                                   Max.-Head-Change                         Max.-Flux-Residual
  Residual-Control   Outer-Iter.   Inner-Iter.     Column Row Layer    Maximum-Head-Change  Column Row Layer    Maximum-Flux-Residual          L2-NORM 
          0                 1           2             2    2     1       0.4928882186E-02       2    2    1         0.2574763767E+00      0.5710481171E+00
          0                 2           1             3    4     1       0.1076718595E-03       3    4    1         0.2860977064E-02      0.1095009496E-01
          0                 3           1             3    4     1       0.1230701352E-04       3    4    1         0.3284032590E-03      0.8673455777E-03

    ------------------------------------------------
       NWT REQUIRED            3 OUTER ITERATIONS 
       AND A TOTAL OF          4 INNER ITERATIONS.
    ------------------------------------------------

 NO OUTPUT CONTROL FOR STRESS PERIOD    3   TIME STEP   16
 
 SOLVING FOR HEAD 
                                                   Max.-Head-Change                         Max.-Flux-Residual
  Residual-Control   Outer-Iter.   Inner-Iter.     Column Row Layer    Maximum-Head-Change  Column Row Layer    Maximum-Flux-Residual          L2-NORM 
          0                 1           2             2    2     1       0.4896177112E-02       2    2    1         0.2557556376E+00      0.5596250999E+00
          0                 2           1             3    4     1       0.1094655291E-03       3    4    1         0.2908851915E-02      0.1097228986E-01
          0                 3           1             3    4     1       0.1251173866E-04       3    4    1         0.3338546159E-03      0.8768158847E-03

    ------------------------------------------------
       NWT REQUIRED            3 OUTER ITERATIONS 
       AND A TOTAL OF          4 INNER ITERATIONS.
    ------------------------------------------------

 NO OUTPUT CONTROL FOR STRESS PERIOD    3   TIME STEP   17
 
 SOLVING FOR HEAD 
                                                   Max.-Head-Change                         Max.-Flux-Residual
  Residual-Control   Outer-Iter.   Inner-Iter.     Column Row Layer    Maximum-Head-Change  Column Row Layer    Maximum-Flux-Residual          L2-NORM 
          0                 1           2             2    2     1       0.4864063183E-02       2    2    1         0.2540660345E+00      0.5493119837E+00
          0                 2           2             3    4     1       0.1112336011E-03       3    4    1         0.2956052319E-02      0.1099569231E-01
          0                 3           1             3    4     1       0.1271349474E-04       3    4    1         0.3392274444E-03      0.8860279461E-03

    ------------------------------------------------
       NWT REQUIRED            3 OUTER ITERATIONS 
       AND A TOTAL OF          5 INNER ITERATIONS.
    ------------------------------------------------

 NO OUTPUT CONTROL FOR STRESS PERIOD    3   TIME STEP   18
 
 SOLVING FOR HEAD 
                                                   Max.-Head-Change                         Max.-Flux-Residual
  Residual-Control   Outer-Iter.   Inner-Iter.     Column Row Layer    Maximum-Head-Change  Column Row Layer    Maximum-Flux-Residual          L2-NORM 
          0                 1           2             2    2     1       0.4832357114E-02       2    2    1         0.2523979334E+00      0.5399734872E+00
          0                 2           2             3    4     1       0.1129225014E-03       3    4    1         0.3001130622E-02      0.1102014466E-01
          0                 3           1             3    4     1       0.1290630534E-04       3    4    1         0.3443605372E-03      0.8949952134E-03

    ------------------------------------------------
       NWT REQUIRED            3 OUTER ITERATIONS 
       AND A TOTAL OF          5 INNER ITERATIONS.
    ------------------------------------------------

 NO OUTPUT CONTROL FOR STRESS PERIOD    3   TIME STEP   19
 
 SOLVING FOR HEAD 
                                                   Max.-Head-Change                         Max.-Flux-Residual
  Residual-Control   Outer-Iter.   Inner-Iter.     Column Row Layer    Maximum-Head-Change  Column Row Layer    Maximum-Flux-Residual          L2-NORM 
          0                 1           2             2    2     1       0.4801138075E-02       2    2    1         0.2507555124E+00      0.5314762096E+00
          0                 2           2             3    4     1       0.1145329444E-03       3    4    1         0.3044120883E-02      0.1104434128E-01
          0                 3           1             3    4     1       0.1309012270E-04       3    4    1         0.3492545686E-03      0.9035590058E-03

    ------------------------------------------------
       NWT REQUIRED            3 OUTER ITERATIONS 
       AND A TOTAL OF          5 INNER ITERATIONS.
    ------------------------------------------------

 NO OUTPUT CONTROL FOR STRESS PERIOD    3   TIME STEP   20
 
 SOLVING FOR HEAD 
                                                   Max.-Head-Change                         Max.-Flux-Residual
  Residual-Control   Outer-Iter.   Inner-Iter.     Column Row Layer    Maximum-Head-Change  Column Row Layer    Maximum-Flux-Residual          L2-NORM 
          0                 1           2             2    2     1       0.4770397019E-02       2    2    1         0.2491383121E+00      0.5237295851E+00
          0                 2           2             3    4     1       0.1160691077E-03       3    4    1         0.3085121612E-02      0.1106878446E-01
          0                 3           1             3    4     1       0.1326555259E-04       3    4    1         0.3539236569E-03      0.9118325970E-03

    ------------------------------------------------
       NWT REQUIRED            3 OUTER ITERATIONS 
       AND A TOTAL OF          5 INNER ITERATIONS.
    ------------------------------------------------

 NO OUTPUT CONTROL FOR STRESS PERIOD    3   TIME STEP   21
 
 SOLVING FOR HEAD 
                                                   Max.-Head-Change                         Max.-Flux-Residual
  Residual-Control   Outer-Iter.   Inner-Iter.     Column Row Layer    Maximum-Head-Change  Column Row Layer    Maximum-Flux-Residual          L2-NORM 
          0                 1           2             2    2     1       0.4740038890E-02       2    2    1         0.2475413013E+00      0.5166358406E+00
          0                 2           2             3    4     1       0.1175331377E-03       3    4    1         0.3124196489E-02      0.1109328244E-01
          0                 3           1             3    4     1       0.1343277308E-04       3    4    1         0.3583736119E-03      0.9198274934E-03

    ------------------------------------------------
       NWT REQUIRED            3 OUTER ITERATIONS 
       AND A TOTAL OF          5 INNER ITERATIONS.
    ------------------------------------------------

 NO OUTPUT CONTROL FOR STRESS PERIOD    3   TIME STEP   22
 
 SOLVING FOR HEAD 
                                                   Max.-Head-Change                         Max.-Flux-Residual
  Residual-Control   Outer-Iter.   Inner-Iter.     Column Row Layer    Maximum-Head-Change  Column Row Layer    Maximum-Flux-Residual          L2-NORM 
          0                 1           2             2    2     1       0.4710143001E-02       2    2    1         0.2459686824E+00      0.5101141234E+00
          0                 2           2             3    4     1       0.1189262051E-03       3    4    1         0.3161385260E-02      0.1111703711E-01
          0                 3           1             3    4     1       0.1359185146E-04       3    4    1         0.3626071544E-03      0.9274951703E-03

    ------------------------------------------------
       NWT REQUIRED            3 OUTER ITERATIONS 
       AND A TOTAL OF          5 INNER ITERATIONS.
    ------------------------------------------------

 NO OUTPUT CONTROL FOR STRESS PERIOD    3   TIME STEP   23
 
 SOLVING FOR HEAD 
                                                   Max.-Head-Change                         Max.-Flux-Residual
  Residual-Control   Outer-Iter.   Inner-Iter.     Column Row Layer    Maximum-Head-Change  Column Row Layer    Maximum-Flux-Residual          L2-NORM 
          0                 1           2             2    2     1       0.4680701435E-02       2    2    1         0.2444199957E+00      0.5041109700E+00
          0                 2           2             3    4     1       0.1202528126E-03       3    4    1         0.3196791347E-02      0.1114051864E-01
          0                 3           1             3    4     1       0.1374343126E-04       3    4    1         0.3666396379E-03      0.9348715228E-03

    ------------------------------------------------
       NWT REQUIRED            3 OUTER ITERATIONS 
       AND A TOTAL OF          5 INNER ITERATIONS.
    ------------------------------------------------

 NO OUTPUT CONTROL FOR STRESS PERIOD    3   TIME STEP   24
 
 SOLVING FOR HEAD 
                                                   Max.-Head-Change                         Max.-Flux-Residual
  Residual-Control   Outer-Iter.   Inner-Iter.     Column Row Layer    Maximum-Head-Change  Column Row Layer    Maximum-Flux-Residual          L2-NORM 
          0                 1           2             2    2     1       0.4651706534E-02       2    2    1         0.2428948386E+00      0.4985518449E+00
          0                 2           2             3    4     1       0.1215704814E-03       3    4    1         0.3231958742E-02      0.1116398242E-01
          0                 3           1             3    4     1       0.1389399485E-04       3    4    1         0.3706449636E-03      0.9420296608E-03

    ------------------------------------------------
       NWT REQUIRED            3 OUTER ITERATIONS 
       AND A TOTAL OF          5 INNER ITERATIONS.
    ------------------------------------------------

 NO OUTPUT CONTROL FOR STRESS PERIOD    3   TIME STEP   25
 
 SOLVING FOR HEAD 
                                                   Max.-Head-Change                         Max.-Flux-Residual
  Residual-Control   Outer-Iter.   Inner-Iter.     Column Row Layer    Maximum-Head-Change  Column Row Layer    Maximum-Flux-Residual          L2-NORM 
          0                 1           2             2    2     1       0.4623063288E-02       2    2    1         0.2413882581E+00      0.4933972227E+00
          0                 2           2             3    4     1       0.1227676802E-03       3    4    1         0.3263910341E-02      0.1118657395E-01
          0                 3           1             3    4     1       0.1403084211E-04       3    4    1         0.3742842719E-03      0.9489161241E-03

    ------------------------------------------------
       NWT REQUIRED            3 OUTER ITERATIONS 
       AND A TOTAL OF          5 INNER ITERATIONS.
    ------------------------------------------------

 NO OUTPUT CONTROL FOR STRESS PERIOD    3   TIME STEP   26
 
 SOLVING FOR HEAD 
                                                   Max.-Head-Change                         Max.-Flux-Residual
  Residual-Control   Outer-Iter.   Inner-Iter.     Column Row Layer    Maximum-Head-Change  Column Row Layer    Maximum-Flux-Residual          L2-NORM 
          0                 1           2             2    2     1       0.4594938986E-02       2    2    1         0.2399090008E+00      0.4885872202E+00
          0                 2           2             3    4     1       0.1239601593E-03       3    4    1         0.3295736529E-02      0.1120837653E-01
          0                 3           1             3    4     1       0.1416715013E-04       3    4    1         0.3779091992E-03      0.9555240333E-03

    ------------------------------------------------
       NWT REQUIRED            3 OUTER ITERATIONS 
       AND A TOTAL OF          5 INNER ITERATIONS.
    ------------------------------------------------

 NO OUTPUT CONTROL FOR STRESS PERIOD    3   TIME STEP   27
 
 SOLVING FOR HEAD 
                                                   Max.-Head-Change                         Max.-Flux-Residual
  Residual-Control   Outer-Iter.   Inner-Iter.     Column Row Layer    Maximum-Head-Change  Column Row Layer    Maximum-Flux-Residual          L2-NORM 
          0                 1           2             2    2     1       0.4567151313E-02       2    2    1         0.2384475044E+00      0.4841004427E+00
          0                 2           2             3    4     1       0.1250927457E-03       3    4    1         0.3325963457E-02      0.1123017433E-01
          0                 3           1             3    4     1       0.1429664062E-04       3    4    1         0.3813521861E-03      0.9618977664E-03

    ------------------------------------------------
       NWT REQUIRED            3 OUTER ITERATIONS 
       AND A TOTAL OF          5 INNER ITERATIONS.
    ------------------------------------------------

 NO OUTPUT CONTROL FOR STRESS PERIOD    3   TIME STEP   28
 
 SOLVING FOR HEAD 
                                                   Max.-Head-Change                         Max.-Flux-Residual
  Residual-Control   Outer-Iter.   Inner-Iter.     Column Row Layer    Maximum-Head-Change  Column Row Layer    Maximum-Flux-Residual          L2-NORM 
          0                 1           2             2    2     1       0.4539693186E-02       2    2    1         0.2370034379E+00      0.4798918358E+00
          0                 2           2             3    4     1       0.1261111971E-03       3    4    1         0.3353144129E-02      0.1123379160E-01
          0                 3           1             2    3     1       0.1452353535E-04       3    4    1         0.3844483592E-03      0.9669989016E-03

    ------------------------------------------------
       NWT REQUIRED            3 OUTER ITERATIONS 
       AND A TOTAL OF          5 INNER ITERATIONS.
    ------------------------------------------------

 NO OUTPUT CONTROL FOR STRESS PERIOD    3   TIME STEP   29
 
 SOLVING FOR HEAD 
                                                   Max.-Head-Change                         Max.-Flux-Residual
  Residual-Control   Outer-Iter.   Inner-Iter.     Column Row Layer    Maximum-Head-Change  Column Row Layer    Maximum-Flux-Residual          L2-NORM 
          0                 1           2             4   13     1       0.1178337626E-01       4   13    1         0.6784064675E+00      0.1408052319E+01
          0                 2           2             3    4     1       0.1317340785E-03       1   13    1         0.4246897720E-02      0.1413162467E-01
          0                 3           1             2    3     1       0.1528948817E-04       3    4    1         0.4020949604E-03      0.1015296335E-02

    ------------------------------------------------
       NWT REQUIRED            3 OUTER ITERATIONS 
       AND A TOTAL OF          5 INNER ITERATIONS.
    ------------------------------------------------

 NO OUTPUT CONTROL FOR STRESS PERIOD    3   TIME STEP   30



 STREAM LISTING     PERIOD      3   STEP       30

 LAYER ROW COL. STREAM  RCH.  FLOW INTO     FLOW TO   FLOW OUT OF   OVRLND.     DIRECT     STREAM       STREAM     STREAM     STREAM   STREAMBED  STREAMBED
                SEG.NO.  NO.  STRM. RCH.    AQUIFER    STRM. RCH.    RUNOFF     PRECIP       ET          HEAD       DEPTH      WIDTH   CONDCTNC.   GRADIENT

   1    1    1     1     1    7.0927E+01  4.0902E-01   7.0518E+01  0.000E+00  0.000E+00  0.000E+00  1.09470E+03  1.653E+00  1.953E+01  8.791E-02  1.551E+00
   1    2    2     1     2    7.0518E+01  6.3357E-01   6.9884E+01  0.000E+00  0.000E+00  0.000E+00  1.08971E+03  1.647E+00  1.948E+01  1.363E-01  1.549E+00
   1    3    3     1     3    6.9884E+01  5.4046E-01   6.9344E+01  0.000E+00  0.000E+00  0.000E+00  1.08406E+03  1.640E+00  1.941E+01  1.165E-01  1.547E+00
   1    3    4     1     4    6.9344E+01  4.9780E-01   6.8846E+01  0.000E+00  0.000E+00  0.000E+00  1.07904E+03  1.635E+00  1.935E+01  1.074E-01  1.545E+00
   1    4    5     2     1    6.6846E+01  4.0363E-01   6.6442E+01  0.000E+00  0.000E+00  0.000E+00  1.07411E+03  2.175E+00  1.200E+01  7.800E-02  1.725E+00
   1    5    6     2     2    6.6442E+01  3.1006E-01   6.6132E+01  0.000E+00  0.000E+00  0.000E+00  1.06868E+03  2.168E+00  1.200E+01  6.000E-02  1.723E+00
   1    6    6     2     3    6.6132E+01  3.0970E-01   6.5823E+01  0.000E+00  0.000E+00  0.000E+00  1.06395E+03  2.162E+00  1.200E+01  6.000E-02  1.721E+00
   1    7    6     2     4    6.5823E+01  3.0933E-01   6.5513E+01  0.000E+00  0.000E+00  0.000E+00  1.05923E+03  2.156E+00  1.200E+01  6.000E-02  1.719E+00
   1    8    6     2     5    6.5513E+01  3.0897E-01   6.5204E+01  0.000E+00  0.000E+00  0.000E+00  1.05451E+03  2.149E+00  1.200E+01  6.000E-02  1.716E+00
   1    3    5     3     1    2.0000E+00  2.8252E-01   1.7175E+00  0.000E+00  0.000E+00  0.000E+00  1.07555E+03  1.909E+00  9.636E+00  7.227E-02  1.955E+00
   1    3    6     3     2    1.7175E+00  2.4905E-01   1.4684E+00  0.000E+00  0.000E+00  0.000E+00  1.07264E+03  1.727E+00  8.909E+00  6.682E-02  1.864E+00
   1    3    7     3     3    1.4684E+00  1.9718E-01   1.2712E+00  0.000E+00  0.000E+00  0.000E+00  1.06987E+03  1.555E+00  8.218E+00  5.547E-02  1.777E+00
   1    4    8     3     4    1.2712E+00  2.2567E-01   1.0456E+00  0.000E+00  0.000E+00  0.000E+00  1.06682E+03  1.364E+00  7.455E+00  6.709E-02  1.682E+00
   1    5    8     3     5    1.0456E+00  1.5790E-01   8.8768E-01  0.000E+00  0.000E+00  0.000E+00  1.06362E+03  1.164E+00  6.655E+00  4.991E-02  1.582E+00
   1    6    8     3     6    8.8768E-01  5.5980E-02   8.3170E-01  0.000E+00  0.000E+00  0.000E+00  1.06158E+03  1.036E+00  6.145E+00  1.844E-02  1.518E+00
   1    5   10     4     1    1.0000E+01  9.0919E-02   9.9091E+00  0.000E+00  0.000E+00  0.000E+00  1.07836E+03  6.368E-01  1.000E+01  2.500E-02  1.212E+00
   1    5    9     4     2    9.9091E+00  1.8158E-01   9.7275E+00  0.000E+00  0.000E+00  0.000E+00  1.07154E+03  6.315E-01  1.000E+01  5.000E-02  1.211E+00
   1    6    8     4     3    9.7275E+00  1.2689E-01   9.6006E+00  0.000E+00  0.000E+00  0.000E+00  1.06381E+03  6.256E-01  1.000E+01  3.500E-02  1.209E+00
   1    6    8     5     1    1.0432E+01  2.2686E-01   1.0205E+01  0.000E+00  0.000E+00  0.000E+00  1.05868E+03  6.790E-01  1.542E+01  6.166E-02  1.226E+00
   1    7    7     5     2    1.0205E+01  2.7894E-01   9.9265E+00  0.000E+00  0.000E+00  0.000E+00  1.05417E+03  6.732E-01  1.519E+01  7.594E-02  1.224E+00
   1    8    7     5     3    9.9265E+00  1.9221E-01   9.7343E+00  0.000E+00  0.000E+00  0.000E+00  1.04992E+03  6.676E-01  1.497E+01  5.241E-02  1.223E+00
   1    8    6     5     4    9.7343E+00  1.3577E-01   9.5985E+00  0.000E+00  0.000E+00  0.000E+00  1.04691E+03  6.637E-01  1.482E+01  3.706E-02  1.221E+00
   1    9    6     6     1    7.4803E+01  3.2123E-01   7.4482E+01  0.000E+00  0.000E+00  0.000E+00  1.04508E+03  2.354E+00  1.200E+01  6.000E-02  1.785E+00
   1   10    7     6     2    7.4482E+01  3.2086E-01   7.4161E+01  0.000E+00  0.000E+00  0.000E+00  1.04053E+03  2.348E+00  1.200E+01  6.000E-02  1.783E+00
   1   11    7     6     3    7.4161E+01  3.2050E-01   7.3840E+01  0.000E+00  0.000E+00  0.000E+00  1.03598E+03  2.342E+00  1.200E+01  6.000E-02  1.781E+00
   1   12    7     6     4    7.3840E+01  3.2013E-01   7.3520E+01  0.000E+00  0.000E+00  0.000E+00  1.03143E+03  2.336E+00  1.200E+01  6.000E-02  1.779E+00
   1   13    7     6     5    7.3520E+01  2.7317E-02   7.3493E+01  0.000E+00  0.000E+00  0.000E+00  1.02824E+03  2.332E+00  1.200E+01  2.400E-02  3.794E-01
   1   14    9     7     1    1.5000E+02  1.3359E+00   1.4866E+02  0.000E+00  0.000E+00  0.000E+00  1.03987E+03  2.288E+00  5.529E+01  5.593E-01  7.962E-01
   1   13    8     7     2    1.4866E+02  1.8332E+00   1.4683E+02  0.000E+00  0.000E+00  0.000E+00  1.03478E+03  2.279E+00  5.526E+01  6.148E-01  9.940E-01
   1   13    7     7     3    1.4683E+02  1.4446E+00   1.4539E+02  0.000E+00  0.000E+00  0.000E+00  1.02969E+03  2.271E+00  5.522E+01  5.585E-01  8.623E-01
   1   13    6     8     1    2.1888E+02  1.1065E+00   2.1777E+02  0.000E+00  0.000E+00  0.000E+00  1.02512E+03  3.243E+00  4.702E+01  4.791E-01  7.698E-01
   1   13    5     8     2    2.1777E+02  2.7854E-01   2.1749E+02  0.000E+00  0.000E+00  0.000E+00  1.01886E+03  3.239E+00  4.696E+01  4.786E-01  1.940E-01
   1   13    4     8     3    2.1749E+02 -1.8813E+00   2.1938E+02  0.000E+00  0.000E+00  0.000E+00  1.01262E+03  3.243E+00  4.703E+01  4.792E+00 -1.309E-01
   1   13    3     8     4    2.1938E+02 -3.1223E+00   2.2250E+02  0.000E+00  0.000E+00  0.000E+00  1.00638E+03  3.257E+00  4.723E+01  4.813E+00 -2.163E-01
   1   13    2     8     5    2.2250E+02 -1.9606E+00   2.2446E+02  0.000E+00  0.000E+00  0.000E+00  1.00015E+03  3.271E+00  4.743E+01  4.833E+00 -1.352E-01
   1   13    1     8     6    2.2446E+02 -1.5847E+00   2.2604E+02  0.000E+00  0.000E+00  0.000E+00  9.95156E+02  3.281E+00  4.757E+01  2.909E+00 -1.816E-01





UNSATURATED ZONE PACKAGE VOLUMETRIC BUDGET FOR  TIME STEP    30 STRESS PERIOD    3
  ------------------------------------------------------------------------------



     CUMULATIVE VOLUMES      L**3       RATES FOR THIS TIME STEP      L**3/T
     ------------------                 ------------------------

           IN:                                      IN:
           ---                                      ---
        INFILTRATION =     4527684.0000          INFILTRATION =           0.8475

          OUT:                                     OUT:
          ----                                     ----
              UZF ET =       30240.4710                UZF ET =           0.0113
        UZF RECHARGE =     2440025.7152          UZF RECHARGE =           0.7936

            IN - OUT =     2057417.8138              IN - OUT =       4.2552E-02

          STORAGE:                                 STORAGE:
          --------                                 --------
      STORAGE CHANGE =     2057417.8040        STORAGE CHANGE =       4.2552E-02

 PERCENT DISCREPANCY IS DIFFERENCE BETWEEN IN-OUT MINUS CHANGE IN STORAGE
 DIVIDED BY THE AVERAGE OF IN AND OUT TIMES 100

 PERCENT DISCREPANCY =           0.00     PERCENT DISCREPANCY =           0.00






1
  VOLUMETRIC BUDGET FOR ENTIRE MODEL AT END OF TIME STEP   30, STRESS PERIOD   3
  ------------------------------------------------------------------------------

     CUMULATIVE VOLUMES      L**3       RATES FOR THIS TIME STEP      L**3/T
     ------------------                 ------------------------

           IN:                                      IN:
           ---                                      ---
               AWU WELLS =           0.0000                 AWU WELLS =           0.0000
      DIVERSION SEGMENTS =           0.0000        DIVERSION SEGMENTS =           0.0000
           GW IRRIGATION =           0.0000             GW IRRIGATION =           0.0000
           SW IRRIGATION =           0.0000             SW IRRIGATION =           0.0000
        SYSTEM LOSSES GW =           0.0000          SYSTEM LOSSES GW =           0.0000
        SYSTEM LOSSES SW =           0.0000          SYSTEM LOSSES SW =           0.0000

                TOTAL IN =           0.0000                  TOTAL IN =           0.0000

          OUT:                                     OUT:
          ----                                     ----
               AWU WELLS =           0.0000                 AWU WELLS =           0.0000
      DIVERSION SEGMENTS =           0.0000        DIVERSION SEGMENTS =           0.0000
           GW IRRIGATION =           0.0000             GW IRRIGATION =           0.0000
           SW IRRIGATION =           0.0000             SW IRRIGATION =           0.0000
        SYSTEM LOSSES GW =           0.0000          SYSTEM LOSSES GW =           0.0000
        SYSTEM LOSSES SW =           0.0000          SYSTEM LOSSES SW =           0.0000

               TOTAL OUT =           0.0000                 TOTAL OUT =           0.0000

                IN - OUT =           0.0000                  IN - OUT =           0.0000

     PERCENT DISCREPANCY =           0.00         PERCENT DISCREPANCY =           0.00



1
  VOLUMETRIC BUDGET FOR ENTIRE MODEL AT END OF TIME STEP   30, STRESS PERIOD   3
  ------------------------------------------------------------------------------

     CUMULATIVE VOLUMES      L**3       RATES FOR THIS TIME STEP      L**3/T
     ------------------                 ------------------------

           IN:                                      IN:
           ---                                      ---
             STORAGE     =     2678160.0000               STORAGE     =           0.4344
       CONSTANT HEAD     =           0.0000         CONSTANT HEAD     =           0.0000
     HEAD DEP BOUNDS     =     1526619.6250       HEAD DEP BOUNDS     =           0.2858
      STREAM LEAKAGE     =    64131140.0000        STREAM LEAKAGE     =          13.4328
        UZF RECHARGE     =     2440025.7500          UZF RECHARGE     =           0.7936
               GW ET     =           0.0000                 GW ET     =           0.0000
     SURFACE LEAKAGE     =           0.0000       SURFACE LEAKAGE     =           0.0000
           AWU WELLS     =           0.0000             AWU WELLS     =           0.0000

                TOTAL IN =    70775944.0000                  TOTAL IN =          14.9466

          OUT:                                     OUT:
          ----                                     ----
             STORAGE     =    15132399.0000               STORAGE     =           6.0945
       CONSTANT HEAD     =           0.0000         CONSTANT HEAD     =           0.0000
     HEAD DEP BOUNDS     =     1544552.7500       HEAD DEP BOUNDS     =           0.2926
      STREAM LEAKAGE     =    53969776.0000        STREAM LEAKAGE     =           8.5489
        UZF RECHARGE     =           0.0000          UZF RECHARGE     =           0.0000
               GW ET     =      138484.1562                 GW ET     =       1.0165E-02
     SURFACE LEAKAGE     =           0.0000       SURFACE LEAKAGE     =           0.0000
           AWU WELLS     =           0.0000             AWU WELLS     =           0.0000

               TOTAL OUT =    70785216.0000                 TOTAL OUT =          14.9462

                IN - OUT =       -9272.0000                  IN - OUT =       4.2343E-04

     PERCENT DISCREPANCY =          -0.01         PERCENT DISCREPANCY =           0.00






         TIME SUMMARY AT END OF TIME STEP   30 IN STRESS PERIOD    3
                    SECONDS     MINUTES      HOURS       DAYS        YEARS
                    -----------------------------------------------------------
   TIME STEP LENGTH  87600.      1460.0      24.333      1.0139     2.77588E-03
 STRESS PERIOD TIME 2.62800E+06  43800.      730.00      30.417     8.32763E-02
         TOTAL TIME 5.34240E+06  89040.      1484.0      61.833     0.16929    
1
1
                            STRESS PERIOD NO.    4, LENGTH =   2628000.    
                            -----------------------------------------------

                              NUMBER OF TIME STEPS =    30

                               MULTIPLIER FOR DELT =     1.000

                            INITIAL TIME STEP SIZE =   87600.00    

 REUSING NON-PARAMETER GHB CELLS FROM LAST STRESS PERIOD

      2 GHB CELLS

 REUSING STREAM SEGMENT DATA FROM LAST STRESS PERIOD



            AREAL INFILTRATION RATE
 READING ON UNIT   19 WITH FORMAT: (10F4.0)            

            1           2           3           4           5           6           7           8           9          10
 ........................................................................................................................
   1   1.0000E-10  2.0000E-10   0.000       0.000       0.000       0.000       0.000       0.000       0.000       0.000    
   2   2.0000E-10  1.0000E-10  2.0000E-10   0.000       0.000      8.0000E-10  8.0000E-10  5.0000E-10   0.000       0.000    
   3    0.000      5.0000E-10  1.0000E-10  1.0000E-10  8.0000E-10  8.0000E-10  5.0000E-10  5.0000E-10   0.000       0.000    
   4   8.0000E-10  5.0000E-10  1.0000E-10  1.0000E-10  1.0000E-10  1.0000E-10  1.0000E-10  1.0000E-10  2.0000E-10   0.000    
   5   8.0000E-10  5.0000E-10  1.0000E-10  1.0000E-10  1.0000E-10  1.0000E-10  1.0000E-10  1.0000E-10  1.0000E-10  1.0000E-10
   6   8.0000E-10  5.0000E-10  5.0000E-10  2.0000E-10  2.0000E-10  1.0000E-10  1.0000E-10  1.0000E-10  1.0000E-10  5.0000E-10
   7   8.0000E-10  5.0000E-10  5.0000E-10  2.0000E-10  2.0000E-10  1.0000E-10  1.0000E-10  2.0000E-10  2.0000E-10   0.000    
   8    0.000      5.0000E-10  5.0000E-10  2.0000E-10  2.0000E-10  1.0000E-10  1.0000E-10  2.0000E-10  5.0000E-10   0.000    
   9    0.000      5.0000E-10  5.0000E-10  2.0000E-10  2.0000E-10  1.0000E-10  1.0000E-10  2.0000E-10  5.0000E-10   0.000    
  10    0.000      5.0000E-10  5.0000E-10  2.0000E-10  2.0000E-10  1.0000E-10  1.0000E-10  2.0000E-10  5.0000E-10  8.0000E-10
  11    0.000      1.0000E-10  1.0000E-10  1.0000E-10  1.0000E-10  1.0000E-10  1.0000E-10  2.0000E-10  5.0000E-10   0.000    
  12   1.0000E-10  1.0000E-10  1.0000E-10  1.0000E-10  1.0000E-10  1.0000E-10  1.0000E-10  1.0000E-10  2.0000E-10   0.000    
  13   1.0000E-10  1.0000E-10  2.0000E-10  2.0000E-10  2.0000E-10  2.0000E-10  2.0000E-10  1.0000E-10  1.0000E-10   0.000    
  14    0.000      2.0000E-10  5.0000E-10  5.0000E-10  5.0000E-10  5.0000E-10  5.0000E-10  2.0000E-10  1.0000E-10   0.000    
  15    0.000       0.000      8.0000E-10  8.0000E-10  8.0000E-10  8.0000E-10   0.000       0.000       0.000       0.000    

                  ET RATE =  1.000000E-10

 USING ET EXTINCTION DEPTH FROM PREVIOUS STRESS PERIOD. CURRENT PERIOD IS:       4

 USING EXTINCTION WATER CONTENT FROM PREVIOUS STRESS PERIOD. CURRENT PERIOD IS:       4

 PROCESSING AWU STRESS PERIOD DATA

 READING AWU STRESS PERIOD DATA

 READING IRRIGATION WELL

 END PROCESSING AWU STRESS PERIOD DATA OPTIONS
 
 SOLVING FOR HEAD 
                                                   Max.-Head-Change                         Max.-Flux-Residual
  Residual-Control   Outer-Iter.   Inner-Iter.     Column Row Layer    Maximum-Head-Change  Column Row Layer    Maximum-Flux-Residual          L2-NORM 
          0                 1           2             4   13     1       0.1289755495E-01       4   13    1         0.7429515052E+00      0.1546241529E+01
          0                 2           2             3    4     1       0.1361833579E-03       1   13    1         0.4747946175E-02      0.1486142326E-01
          0                 3           1             2    3     1       0.1590712588E-04       2    3    1         0.4174538036E-03      0.1053461784E-02

    ------------------------------------------------
       NWT REQUIRED            3 OUTER ITERATIONS 
       AND A TOTAL OF          5 INNER ITERATIONS.
    ------------------------------------------------

 NO OUTPUT CONTROL FOR STRESS PERIOD    4   TIME STEP    1
 
 SOLVING FOR HEAD 
                                                   Max.-Head-Change                         Max.-Flux-Residual
  Residual-Control   Outer-Iter.   Inner-Iter.     Column Row Layer    Maximum-Head-Change  Column Row Layer    Maximum-Flux-Residual          L2-NORM 
          0                 1           2             2   13     1       0.1163145066E-01       4   13    1         0.6639109332E+00      0.1444682286E+01
          0                 2           2             3    4     1       0.1400356225E-03       1   13    1         0.4391019238E-02      0.1474737545E-01
          0                 3           1             2    3     1       0.1646471969E-04       2    3    1         0.4320846576E-03      0.1085554727E-02

    ------------------------------------------------
       NWT REQUIRED            3 OUTER ITERATIONS 
       AND A TOTAL OF          5 INNER ITERATIONS.
    ------------------------------------------------

 NO OUTPUT CONTROL FOR STRESS PERIOD    4   TIME STEP    2
 
 SOLVING FOR HEAD 
                                                   Max.-Head-Change                         Max.-Flux-Residual
  Residual-Control   Outer-Iter.   Inner-Iter.     Column Row Layer    Maximum-Head-Change  Column Row Layer    Maximum-Flux-Residual          L2-NORM 
          0                 1           2             2   13     1       0.1061968847E-01       2   13    1         0.6014994523E+00      0.1355156219E+01
          0                 2           2             2    3     1       0.1443292582E-03       1   13    1         0.4064353371E-02      0.1465721161E-01
          0                 3           1             2    3     1       0.1700564710E-04       2    3    1         0.4461615000E-03      0.1114011339E-02

    ------------------------------------------------
       NWT REQUIRED            3 OUTER ITERATIONS 
       AND A TOTAL OF          5 INNER ITERATIONS.
    ------------------------------------------------

 NO OUTPUT CONTROL FOR STRESS PERIOD    4   TIME STEP    3
 
 SOLVING FOR HEAD 
                                                   Max.-Head-Change                         Max.-Flux-Residual
  Residual-Control   Outer-Iter.   Inner-Iter.     Column Row Layer    Maximum-Head-Change  Column Row Layer    Maximum-Flux-Residual          L2-NORM 
          0                 1           2             2   13     1       0.9697114233E-02       2   13    1         0.5491593603E+00      0.1276326094E+01
          0                 2           2             2    3     1       0.1488469585E-03       3    4    1         0.3915966772E-02      0.1462041372E-01
          0                 3           1             2    3     1       0.1752673370E-04       2    3    1         0.4599802585E-03      0.1143380795E-02

    ------------------------------------------------
       NWT REQUIRED            3 OUTER ITERATIONS 
       AND A TOTAL OF          5 INNER ITERATIONS.
    ------------------------------------------------

 NO OUTPUT CONTROL FOR STRESS PERIOD    4   TIME STEP    4
 
 SOLVING FOR HEAD 
                                                   Max.-Head-Change                         Max.-Flux-Residual
  Residual-Control   Outer-Iter.   Inner-Iter.     Column Row Layer    Maximum-Head-Change  Column Row Layer    Maximum-Flux-Residual          L2-NORM 
          0                 1           2             2   13     1       0.8855953624E-02       2   13    1         0.5014409269E+00      0.1206996715E+01
          0                 2           2             2    3     1       0.1532950811E-03       2    3    1         0.4012639912E-02      0.1460198158E-01
          0                 3           1             2    3     1       0.1805075035E-04       2    3    1         0.4737078788E-03      0.1170217980E-02

    ------------------------------------------------
       NWT REQUIRED            3 OUTER ITERATIONS 
       AND A TOTAL OF          5 INNER ITERATIONS.
    ------------------------------------------------

 NO OUTPUT CONTROL FOR STRESS PERIOD    4   TIME STEP    5
 
 SOLVING FOR HEAD 
                                                   Max.-Head-Change                         Max.-Flux-Residual
  Residual-Control   Outer-Iter.   Inner-Iter.     Column Row Layer    Maximum-Head-Change  Column Row Layer    Maximum-Flux-Residual          L2-NORM 
          0                 1           2             2   13     1       0.8089032738E-02       2   13    1         0.4579369699E+00      0.1146060856E+01
          0                 2           2             2    3     1       0.1576489564E-03       2    3    1         0.4126934718E-02      0.1460587662E-01
          0                 3           1             2    3     1       0.1856239301E-04       2    3    1         0.4871292812E-03      0.1195996019E-02

    ------------------------------------------------
       NWT REQUIRED            3 OUTER ITERATIONS 
       AND A TOTAL OF          5 INNER ITERATIONS.
    ------------------------------------------------

 NO OUTPUT CONTROL FOR STRESS PERIOD    4   TIME STEP    6
 
 SOLVING FOR HEAD 
                                                   Max.-Head-Change                         Max.-Flux-Residual
  Residual-Control   Outer-Iter.   Inner-Iter.     Column Row Layer    Maximum-Head-Change  Column Row Layer    Maximum-Flux-Residual          L2-NORM 
          0                 1           2             2    2     1       0.7608225723E-02       2   13    1         0.4182733641E+00      0.1092538367E+01
          0                 2           2             2    3     1       0.1618923378E-03       2    3    1         0.4238327503E-02      0.1462564044E-01
          0                 3           1             2    3     1       0.1906106591E-04       2    3    1         0.5002102069E-03      0.1220614288E-02

    ------------------------------------------------
       NWT REQUIRED            3 OUTER ITERATIONS 
       AND A TOTAL OF          5 INNER ITERATIONS.
    ------------------------------------------------

 NO OUTPUT CONTROL FOR STRESS PERIOD    4   TIME STEP    7
 
 SOLVING FOR HEAD 
                                                   Max.-Head-Change                         Max.-Flux-Residual
  Residual-Control   Outer-Iter.   Inner-Iter.     Column Row Layer    Maximum-Head-Change  Column Row Layer    Maximum-Flux-Residual          L2-NORM 
          0                 1           2             2    2     1       0.7558308143E-02       2    2    1         0.3947946787E+00      0.1045538863E+01
          0                 2           2             2    3     1       0.1660279467E-03       2    3    1         0.4346889533E-02      0.1464842185E-01
          0                 3           1             2    3     1       0.1954708894E-04       2    3    1         0.5129590805E-03      0.1243496711E-02

    ------------------------------------------------
       NWT REQUIRED            3 OUTER ITERATIONS 
       AND A TOTAL OF          5 INNER ITERATIONS.
    ------------------------------------------------

 NO OUTPUT CONTROL FOR STRESS PERIOD    4   TIME STEP    8
 
 SOLVING FOR HEAD 
                                                   Max.-Head-Change                         Max.-Flux-Residual
  Residual-Control   Outer-Iter.   Inner-Iter.     Column Row Layer    Maximum-Head-Change  Column Row Layer    Maximum-Flux-Residual          L2-NORM 
          0                 1           2             2    2     1       0.7509075232E-02       2    2    1         0.3922043405E+00      0.1004261182E+01
          0                 2           2             2    3     1       0.1700860474E-03       2    3    1         0.4453415556E-02      0.1468338490E-01
          0                 3           1             2    3     1       0.2002401543E-04       2    3    1         0.5254691573E-03      0.1265428786E-02

    ------------------------------------------------
       NWT REQUIRED            3 OUTER ITERATIONS 
       AND A TOTAL OF          5 INNER ITERATIONS.
    ------------------------------------------------

 NO OUTPUT CONTROL FOR STRESS PERIOD    4   TIME STEP    9
 
 SOLVING FOR HEAD 
                                                   Max.-Head-Change                         Max.-Flux-Residual
  Residual-Control   Outer-Iter.   Inner-Iter.     Column Row Layer    Maximum-Head-Change  Column Row Layer    Maximum-Flux-Residual          L2-NORM 
          0                 1           2             2    2     1       0.7460601279E-02       2    2    1         0.3896540208E+00      0.9679980155E+00
          0                 2           2             2    3     1       0.1740408420E-03       2    3    1         0.4557228196E-02      0.1473559542E-01
          0                 3           1             2    3     1       0.2048881529E-04       2    3    1         0.5376609066E-03      0.1287454583E-02

    ------------------------------------------------
       NWT REQUIRED            3 OUTER ITERATIONS 
       AND A TOTAL OF          5 INNER ITERATIONS.
    ------------------------------------------------

 NO OUTPUT CONTROL FOR STRESS PERIOD    4   TIME STEP   10
 
 SOLVING FOR HEAD 
                                                   Max.-Head-Change                         Max.-Flux-Residual
  Residual-Control   Outer-Iter.   Inner-Iter.     Column Row Layer    Maximum-Head-Change  Column Row Layer    Maximum-Flux-Residual          L2-NORM 
          0                 1           2             2    2     1       0.7412873069E-02       2    2    1         0.3871430033E+00      0.9361087283E+00
          0                 2           2             2    3     1       0.1779227750E-03       2    3    1         0.4659126637E-02      0.1478621636E-01
          0                 3           1             2    3     1       0.2094506511E-04       2    3    1         0.5496282170E-03      0.1308132811E-02

    ------------------------------------------------
       NWT REQUIRED            3 OUTER ITERATIONS 
       AND A TOTAL OF          5 INNER ITERATIONS.
    ------------------------------------------------

 NO OUTPUT CONTROL FOR STRESS PERIOD    4   TIME STEP   11
 
 SOLVING FOR HEAD 
                                                   Max.-Head-Change                         Max.-Flux-Residual
  Residual-Control   Outer-Iter.   Inner-Iter.     Column Row Layer    Maximum-Head-Change  Column Row Layer    Maximum-Flux-Residual          L2-NORM 
          0                 1           2             2    2     1       0.7365790163E-02       2    2    1         0.3846660457E+00      0.9080353658E+00
          0                 2           2             2    3     1       0.1816775165E-03       2    3    1         0.4757685333E-02      0.1485083912E-01
          0                 3           1             2    3     1       0.2138637979E-04       2    3    1         0.5612035167E-03      0.1327941146E-02

    ------------------------------------------------
       NWT REQUIRED            3 OUTER ITERATIONS 
       AND A TOTAL OF          5 INNER ITERATIONS.
    ------------------------------------------------

 NO OUTPUT CONTROL FOR STRESS PERIOD    4   TIME STEP   12
 
 SOLVING FOR HEAD 
                                                   Max.-Head-Change                         Max.-Flux-Residual
  Residual-Control   Outer-Iter.   Inner-Iter.     Column Row Layer    Maximum-Head-Change  Column Row Layer    Maximum-Flux-Residual          L2-NORM 
          0                 1           2             2    2     1       0.7319427797E-02       2    2    1         0.3822270600E+00      0.8832744416E+00
          0                 2           2             2    3     1       0.1853639587E-03       2    3    1         0.4854449609E-02      0.1492148891E-01
          0                 3           1             2    3     1       0.2181967942E-04       2    3    1         0.5725684200E-03      0.1347777871E-02

    ------------------------------------------------
       NWT REQUIRED            3 OUTER ITERATIONS 
       AND A TOTAL OF          5 INNER ITERATIONS.
    ------------------------------------------------

 NO OUTPUT CONTROL FOR STRESS PERIOD    4   TIME STEP   13
 
 SOLVING FOR HEAD 
                                                   Max.-Head-Change                         Max.-Flux-Residual
  Residual-Control   Outer-Iter.   Inner-Iter.     Column Row Layer    Maximum-Head-Change  Column Row Layer    Maximum-Flux-Residual          L2-NORM 
          0                 1           2             2    2     1       0.7273773557E-02       2    2    1         0.3798253919E+00      0.8613978539E+00
          0                 2           2             2    3     1       0.1889839484E-03       2    3    1         0.4949466545E-02      0.1498263185E-01
          0                 3           1             2    3     1       0.2224519408E-04       2    3    1         0.5837287690E-03      0.1364829277E-02

    ------------------------------------------------
       NWT REQUIRED            3 OUTER ITERATIONS 
       AND A TOTAL OF          5 INNER ITERATIONS.
    ------------------------------------------------

 NO OUTPUT CONTROL FOR STRESS PERIOD    4   TIME STEP   14
 
 SOLVING FOR HEAD 
                                                   Max.-Head-Change                         Max.-Flux-Residual
  Residual-Control   Outer-Iter.   Inner-Iter.     Column Row Layer    Maximum-Head-Change  Column Row Layer    Maximum-Flux-Residual          L2-NORM 
          0                 1           2             2    2     1       0.7228727740E-02       2    2    1         0.3774558353E+00      0.8420144070E+00
          0                 2           2             2    3     1       0.1924830126E-03       2    3    1         0.5041310024E-02      0.1504677213E-01
          0                 3           1             2    3     1       0.2265649419E-04       2    3    1         0.5945162421E-03      0.1381384746E-02

    ------------------------------------------------
       NWT REQUIRED            3 OUTER ITERATIONS 
       AND A TOTAL OF          5 INNER ITERATIONS.
    ------------------------------------------------

 NO OUTPUT CONTROL FOR STRESS PERIOD    4   TIME STEP   15
 
 SOLVING FOR HEAD 
                                                   Max.-Head-Change                         Max.-Flux-Residual
  Residual-Control   Outer-Iter.   Inner-Iter.     Column Row Layer    Maximum-Head-Change  Column Row Layer    Maximum-Flux-Residual          L2-NORM 
          0                 1           2             2    2     1       0.7184366292E-02       2    2    1         0.3751223420E+00      0.8247870005E+00
          0                 2           2             2    3     1       0.1959198862E-03       2    3    1         0.5131518068E-02      0.1511040188E-01
          0                 3           1             2    3     1       0.2306051057E-04       2    3    1         0.6051123055E-03      0.1397129031E-02

    ------------------------------------------------
       NWT REQUIRED            3 OUTER ITERATIONS 
       AND A TOTAL OF          5 INNER ITERATIONS.
    ------------------------------------------------

 NO OUTPUT CONTROL FOR STRESS PERIOD    4   TIME STEP   16
 
 SOLVING FOR HEAD 
                                                   Max.-Head-Change                         Max.-Flux-Residual
  Residual-Control   Outer-Iter.   Inner-Iter.     Column Row Layer    Maximum-Head-Change  Column Row Layer    Maximum-Flux-Residual          L2-NORM 
          0                 1           2             2    2     1       0.7140589898E-02       2    2    1         0.3728197295E+00      0.8094325588E+00
          0                 2           2             2    3     1       0.1992680180E-03       2    3    1         0.5219397362E-02      0.1517419224E-01
          0                 3           1             2    3     1       0.2345409206E-04       2    3    1         0.6154347099E-03      0.1412231736E-02

    ------------------------------------------------
       NWT REQUIRED            3 OUTER ITERATIONS 
       AND A TOTAL OF          5 INNER ITERATIONS.
    ------------------------------------------------

 NO OUTPUT CONTROL FOR STRESS PERIOD    4   TIME STEP   17
 
 SOLVING FOR HEAD 
                                                   Max.-Head-Change                         Max.-Flux-Residual
  Residual-Control   Outer-Iter.   Inner-Iter.     Column Row Layer    Maximum-Head-Change  Column Row Layer    Maximum-Flux-Residual          L2-NORM 
          0                 1           2             2    2     1       0.7097475063E-02       2    2    1         0.3705519731E+00      0.7957002541E+00
          0                 2           2             2    3     1       0.2025298317E-03       2    3    1         0.5305008014E-02      0.1523635839E-01
          0                 3           1             2    3     1       0.2383755430E-04       2    3    1         0.6254912956E-03      0.1426486745E-02

    ------------------------------------------------
       NWT REQUIRED            3 OUTER ITERATIONS 
       AND A TOTAL OF          5 INNER ITERATIONS.
    ------------------------------------------------

 NO OUTPUT CONTROL FOR STRESS PERIOD    4   TIME STEP   18
 
 SOLVING FOR HEAD 
                                                   Max.-Head-Change                         Max.-Flux-Residual
  Residual-Control   Outer-Iter.   Inner-Iter.     Column Row Layer    Maximum-Head-Change  Column Row Layer    Maximum-Flux-Residual          L2-NORM 
          0                 1           2             2    2     1       0.7055010444E-02       2    2    1         0.3683184785E+00      0.7833685355E+00
          0                 2           2             2    3     1       0.2057348594E-03       2    3    1         0.5389128890E-02      0.1529761083E-01
          0                 3           1             2    3     1       0.2421433584E-04       2    3    1         0.6353727560E-03      0.1440165643E-02

    ------------------------------------------------
       NWT REQUIRED            3 OUTER ITERATIONS 
       AND A TOTAL OF          5 INNER ITERATIONS.
    ------------------------------------------------

 NO OUTPUT CONTROL FOR STRESS PERIOD    4   TIME STEP   19
 
 SOLVING FOR HEAD 
                                                   Max.-Head-Change                         Max.-Flux-Residual
  Residual-Control   Outer-Iter.   Inner-Iter.     Column Row Layer    Maximum-Head-Change  Column Row Layer    Maximum-Flux-Residual          L2-NORM 
          0                 1           2             2    2     1       0.7013097358E-02       2    2    1         0.3661140955E+00      0.7722498514E+00
          0                 2           2             2    3     1       0.2088570308E-03       2    3    1         0.5471072077E-02      0.1535714001E-01
          0                 3           1             2    3     1       0.2458140256E-04       2    3    1         0.6449990348E-03      0.1453147093E-02

    ------------------------------------------------
       NWT REQUIRED            3 OUTER ITERATIONS 
       AND A TOTAL OF          5 INNER ITERATIONS.
    ------------------------------------------------

 NO OUTPUT CONTROL FOR STRESS PERIOD    4   TIME STEP   20
 
 SOLVING FOR HEAD 
                                                   Max.-Head-Change                         Max.-Flux-Residual
  Residual-Control   Outer-Iter.   Inner-Iter.     Column Row Layer    Maximum-Head-Change  Column Row Layer    Maximum-Flux-Residual          L2-NORM 
          0                 1           2             2    2     1       0.6971812975E-02       2    2    1         0.3639428338E+00      0.7621864650E+00
          0                 2           2             2    3     1       0.2118979931E-03       2    3    1         0.5550882891E-02      0.1541572567E-01
          0                 3           1             3   13     1      -0.4750986893E-04       3   13    1        -0.2837213296E-02      0.3194423611E-02

    ------------------------------------------------
       NWT REQUIRED            3 OUTER ITERATIONS 
       AND A TOTAL OF          5 INNER ITERATIONS.
    ------------------------------------------------

 NO OUTPUT CONTROL FOR STRESS PERIOD    4   TIME STEP   21
 
 SOLVING FOR HEAD 
                                                   Max.-Head-Change                         Max.-Flux-Residual
  Residual-Control   Outer-Iter.   Inner-Iter.     Column Row Layer    Maximum-Head-Change  Column Row Layer    Maximum-Flux-Residual          L2-NORM 
          0                 1           2             2    2     1       0.6931146199E-02       2    2    1         0.3618041327E+00      0.7530676007E+00
          0                 2           2             2    3     1       0.2148879964E-03       2    3    1         0.5629354850E-02      0.1547163757E-01
          0                 3           1             2    3     1       0.2529045936E-04       2    3    1         0.6635909054E-03      0.1477388213E-02

    ------------------------------------------------
       NWT REQUIRED            3 OUTER ITERATIONS 
       AND A TOTAL OF          5 INNER ITERATIONS.
    ------------------------------------------------

 NO OUTPUT CONTROL FOR STRESS PERIOD    4   TIME STEP   22
 
 SOLVING FOR HEAD 
                                                   Max.-Head-Change                         Max.-Flux-Residual
  Residual-Control   Outer-Iter.   Inner-Iter.     Column Row Layer    Maximum-Head-Change  Column Row Layer    Maximum-Flux-Residual          L2-NORM 
          0                 1           2             2    2     1       0.6890999326E-02       2    2    1         0.3596928521E+00      0.7447125831E+00
          0                 2           2             2    3     1       0.2177718765E-03       2    3    1         0.5705040921E-02      0.1552585652E-01
          0                 3           1             2    3     1       0.2562956792E-04       2    3    1         0.6724859698E-03      0.1488621308E-02

    ------------------------------------------------
       NWT REQUIRED            3 OUTER ITERATIONS 
       AND A TOTAL OF          5 INNER ITERATIONS.
    ------------------------------------------------

 NO OUTPUT CONTROL FOR STRESS PERIOD    4   TIME STEP   23
 
 SOLVING FOR HEAD 
                                                   Max.-Head-Change                         Max.-Flux-Residual
  Residual-Control   Outer-Iter.   Inner-Iter.     Column Row Layer    Maximum-Head-Change  Column Row Layer    Maximum-Flux-Residual          L2-NORM 
          0                 1           2             2    2     1       0.6851449685E-02       2    2    1         0.3576130556E+00      0.7370642759E+00
          0                 2           2             2    3     1       0.2206083518E-03       2    3    1         0.5779481524E-02      0.1557847547E-01
          0                 3           1             2    3     1       0.2596308799E-04       2    3    1         0.6812318265E-03      0.1499371792E-02

    ------------------------------------------------
       NWT REQUIRED            3 OUTER ITERATIONS 
       AND A TOTAL OF          5 INNER ITERATIONS.
    ------------------------------------------------

 NO OUTPUT CONTROL FOR STRESS PERIOD    4   TIME STEP   24
 
 SOLVING FOR HEAD 
                                                   Max.-Head-Change                         Max.-Flux-Residual
  Residual-Control   Outer-Iter.   Inner-Iter.     Column Row Layer    Maximum-Head-Change  Column Row Layer    Maximum-Flux-Residual          L2-NORM 
          0                 1           2             2    2     1       0.6812487228E-02       2    2    1         0.3555641902E+00      0.7300184796E+00
          0                 2           2             2    3     1       0.2233704699E-03       2    3    1         0.5851969736E-02      0.1562910819E-01
          0                 3           1             2    3     1       0.2628787669E-04       2    3    1         0.6897485283E-03      0.1509656847E-02

    ------------------------------------------------
       NWT REQUIRED            3 OUTER ITERATIONS 
       AND A TOTAL OF          5 INNER ITERATIONS.
    ------------------------------------------------

 NO OUTPUT CONTROL FOR STRESS PERIOD    4   TIME STEP   25
 
 SOLVING FOR HEAD 
                                                   Max.-Head-Change                         Max.-Flux-Residual
  Residual-Control   Outer-Iter.   Inner-Iter.     Column Row Layer    Maximum-Head-Change  Column Row Layer    Maximum-Flux-Residual          L2-NORM 
          0                 1           2             2    2     1       0.6774014405E-02       2    2    1         0.3535411693E+00      0.7235124486E+00
          0                 2           2             2    3     1       0.2260600195E-03       2    3    1         0.5922552428E-02      0.1567745474E-01
          0                 3           1             2    3     1       0.2660414235E-04       2    3    1         0.6980415669E-03      0.1519423847E-02

    ------------------------------------------------
       NWT REQUIRED            3 OUTER ITERATIONS 
       AND A TOTAL OF          5 INNER ITERATIONS.
    ------------------------------------------------

 NO OUTPUT CONTROL FOR STRESS PERIOD    4   TIME STEP   26
 
 SOLVING FOR HEAD 
                                                   Max.-Head-Change                         Max.-Flux-Residual
  Residual-Control   Outer-Iter.   Inner-Iter.     Column Row Layer    Maximum-Head-Change  Column Row Layer    Maximum-Flux-Residual          L2-NORM 
          0                 1           2             2    2     1       0.6736109542E-02       2    2    1         0.3515480663E+00      0.7174645859E+00
          0                 2           2             2    3     1       0.2287067288E-03       2    3    1         0.5992008255E-02      0.1572384715E-01
          0                 3           1             2    3     1       0.2691539179E-04       2    3    1         0.7062027684E-03      0.1528745089E-02

    ------------------------------------------------
       NWT REQUIRED            3 OUTER ITERATIONS 
       AND A TOTAL OF          5 INNER ITERATIONS.
    ------------------------------------------------

 NO OUTPUT CONTROL FOR STRESS PERIOD    4   TIME STEP   27
 
 SOLVING FOR HEAD 
                                                   Max.-Head-Change                         Max.-Flux-Residual
  Residual-Control   Outer-Iter.   Inner-Iter.     Column Row Layer    Maximum-Head-Change  Column Row Layer    Maximum-Flux-Residual          L2-NORM 
          0                 1           2             2    2     1       0.6698762753E-02       2    2    1         0.3495843812E+00      0.7118457837E+00
          0                 2           2             2    3     1       0.2312836487E-03       2    3    1         0.6059633276E-02      0.1576892572E-01
          0                 3           1             2    3     1       0.2721843033E-04       2    3    1         0.7141487013E-03      0.1537715367E-02

    ------------------------------------------------
       NWT REQUIRED            3 OUTER ITERATIONS 
       AND A TOTAL OF          5 INNER ITERATIONS.
    ------------------------------------------------

 NO OUTPUT CONTROL FOR STRESS PERIOD    4   TIME STEP   28
 
 SOLVING FOR HEAD 
                                                   Max.-Head-Change                         Max.-Flux-Residual
  Residual-Control   Outer-Iter.   Inner-Iter.     Column Row Layer    Maximum-Head-Change  Column Row Layer    Maximum-Flux-Residual          L2-NORM 
          0                 1           2             2    2     1       0.6661877397E-02       2    2    1         0.3476450302E+00      0.7065869207E+00
          0                 2           2             2    3     1       0.2337926659E-03       2    3    1         0.6125473607E-02      0.1581135760E-01
          0                 3           1             2    3     1       0.2751351009E-04       2    3    1         0.7218855521E-03      0.1546185914E-02

    ------------------------------------------------
       NWT REQUIRED            3 OUTER ITERATIONS 
       AND A TOTAL OF          5 INNER ITERATIONS.
    ------------------------------------------------

 NO OUTPUT CONTROL FOR STRESS PERIOD    4   TIME STEP   29
 
 SOLVING FOR HEAD 
                                                   Max.-Head-Change                         Max.-Flux-Residual
  Residual-Control   Outer-Iter.   Inner-Iter.     Column Row Layer    Maximum-Head-Change  Column Row Layer    Maximum-Flux-Residual          L2-NORM 
          0                 1           2             2    2     1       0.5545782814E-02       2    2    1         0.2892437042E+00      0.6687291850E+00
          0                 2           2             4   13     1       0.2881361209E-03       4   13    1         0.1710778177E-01      0.3087014324E-01
          0                 3           1             2    3     1       0.2760292879E-04       4   13    1        -0.1181739290E-02      0.2374658051E-02

    ------------------------------------------------
       NWT REQUIRED            3 OUTER ITERATIONS 
       AND A TOTAL OF          5 INNER ITERATIONS.
    ------------------------------------------------

 NO OUTPUT CONTROL FOR STRESS PERIOD    4   TIME STEP   30



 STREAM LISTING     PERIOD      4   STEP       30

 LAYER ROW COL. STREAM  RCH.  FLOW INTO     FLOW TO   FLOW OUT OF   OVRLND.     DIRECT     STREAM       STREAM     STREAM     STREAM   STREAMBED  STREAMBED
                SEG.NO.  NO.  STRM. RCH.    AQUIFER    STRM. RCH.    RUNOFF     PRECIP       ET          HEAD       DEPTH      WIDTH   CONDCTNC.   GRADIENT

   1    1    1     1     1    6.5589E+01  3.9119E-01   6.5198E+01  0.000E+00  0.000E+00  0.000E+00  1.09464E+03  1.592E+00  1.893E+01  8.519E-02  1.531E+00
   1    2    2     1     2    6.5198E+01  6.0588E-01   6.4592E+01  0.000E+00  0.000E+00  0.000E+00  1.08964E+03  1.586E+00  1.887E+01  1.321E-01  1.529E+00
   1    3    3     1     3    6.4592E+01  5.1678E-01   6.4075E+01  0.000E+00  0.000E+00  0.000E+00  1.08400E+03  1.580E+00  1.881E+01  1.128E-01  1.527E+00
   1    3    4     1     4    6.4075E+01  4.7593E-01   6.3599E+01  0.000E+00  0.000E+00  0.000E+00  1.07898E+03  1.574E+00  1.875E+01  1.041E-01  1.525E+00
   1    4    5     2     1    6.1599E+01  3.9549E-01   6.1204E+01  0.000E+00  0.000E+00  0.000E+00  1.07400E+03  2.070E+00  1.200E+01  7.800E-02  1.690E+00
   1    5    6     2     2    6.1204E+01  3.0380E-01   6.0900E+01  0.000E+00  0.000E+00  0.000E+00  1.06857E+03  2.063E+00  1.200E+01  6.000E-02  1.688E+00
   1    6    6     2     3    6.0900E+01  3.0343E-01   6.0597E+01  0.000E+00  0.000E+00  0.000E+00  1.06385E+03  2.057E+00  1.200E+01  6.000E-02  1.686E+00
   1    7    6     2     4    6.0597E+01  3.0306E-01   6.0293E+01  0.000E+00  0.000E+00  0.000E+00  1.05913E+03  2.051E+00  1.200E+01  6.000E-02  1.684E+00
   1    8    6     2     5    6.0293E+01  3.0269E-01   5.9991E+01  0.000E+00  0.000E+00  0.000E+00  1.05440E+03  2.045E+00  1.200E+01  6.000E-02  1.682E+00
   1    3    5     3     1    2.0000E+00  2.8252E-01   1.7175E+00  0.000E+00  0.000E+00  0.000E+00  1.07555E+03  1.909E+00  9.636E+00  7.227E-02  1.955E+00
   1    3    6     3     2    1.7175E+00  2.4905E-01   1.4684E+00  0.000E+00  0.000E+00  0.000E+00  1.07264E+03  1.727E+00  8.909E+00  6.682E-02  1.864E+00
   1    3    7     3     3    1.4684E+00  1.9718E-01   1.2712E+00  0.000E+00  0.000E+00  0.000E+00  1.06987E+03  1.555E+00  8.218E+00  5.547E-02  1.777E+00
   1    4    8     3     4    1.2712E+00  2.2567E-01   1.0456E+00  0.000E+00  0.000E+00  0.000E+00  1.06682E+03  1.364E+00  7.455E+00  6.709E-02  1.682E+00
   1    5    8     3     5    1.0456E+00  1.5790E-01   8.8768E-01  0.000E+00  0.000E+00  0.000E+00  1.06362E+03  1.164E+00  6.655E+00  4.991E-02  1.582E+00
   1    6    8     3     6    8.8768E-01  5.5980E-02   8.3170E-01  0.000E+00  0.000E+00  0.000E+00  1.06158E+03  1.036E+00  6.145E+00  1.844E-02  1.518E+00
   1    5   10     4     1    1.0000E+01  9.0919E-02   9.9091E+00  0.000E+00  0.000E+00  0.000E+00  1.07836E+03  6.368E-01  1.000E+01  2.500E-02  1.212E+00
   1    5    9     4     2    9.9091E+00  1.8158E-01   9.7275E+00  0.000E+00  0.000E+00  0.000E+00  1.07154E+03  6.315E-01  1.000E+01  5.000E-02  1.211E+00
   1    6    8     4     3    9.7275E+00  1.2689E-01   9.6006E+00  0.000E+00  0.000E+00  0.000E+00  1.06381E+03  6.256E-01  1.000E+01  3.500E-02  1.209E+00
   1    6    8     5     1    1.0432E+01  2.2686E-01   1.0205E+01  0.000E+00  0.000E+00  0.000E+00  1.05868E+03  6.790E-01  1.542E+01  6.166E-02  1.226E+00
   1    7    7     5     2    1.0205E+01  2.7894E-01   9.9265E+00  0.000E+00  0.000E+00  0.000E+00  1.05417E+03  6.732E-01  1.519E+01  7.594E-02  1.224E+00
   1    8    7     5     3    9.9265E+00  1.9221E-01   9.7343E+00  0.000E+00  0.000E+00  0.000E+00  1.04992E+03  6.676E-01  1.497E+01  5.241E-02  1.223E+00
   1    8    6     5     4    9.7343E+00  1.3577E-01   9.5985E+00  0.000E+00  0.000E+00  0.000E+00  1.04691E+03  6.637E-01  1.482E+01  3.706E-02  1.221E+00
   1    9    6     6     1    6.9589E+01  3.1522E-01   6.9274E+01  0.000E+00  0.000E+00  0.000E+00  1.04498E+03  2.254E+00  1.200E+01  6.000E-02  1.751E+00
   1   10    7     6     2    6.9274E+01  3.1486E-01   6.8959E+01  0.000E+00  0.000E+00  0.000E+00  1.04043E+03  2.248E+00  1.200E+01  6.000E-02  1.749E+00
   1   11    7     6     3    6.8959E+01  3.1449E-01   6.8645E+01  0.000E+00  0.000E+00  0.000E+00  1.03588E+03  2.241E+00  1.200E+01  6.000E-02  1.747E+00
   1   12    7     6     4    6.8645E+01  3.1412E-01   6.8331E+01  0.000E+00  0.000E+00  0.000E+00  1.03133E+03  2.235E+00  1.200E+01  6.000E-02  1.745E+00
   1   13    7     6     5    6.8331E+01  2.3965E-02   6.8307E+01  0.000E+00  0.000E+00  0.000E+00  1.02814E+03  2.232E+00  1.200E+01  2.400E-02  3.329E-01
   1   14    9     7     1    1.5000E+02  1.3359E+00   1.4866E+02  0.000E+00  0.000E+00  0.000E+00  1.03987E+03  2.288E+00  5.529E+01  5.593E-01  7.962E-01
   1   13    8     7     2    1.4866E+02  1.8267E+00   1.4684E+02  0.000E+00  0.000E+00  0.000E+00  1.03478E+03  2.279E+00  5.526E+01  6.148E-01  9.905E-01
   1   13    7     7     3    1.4684E+02  1.4226E+00   1.4541E+02  0.000E+00  0.000E+00  0.000E+00  1.02969E+03  2.271E+00  5.522E+01  5.585E-01  8.491E-01
   1   13    6     8     1    2.1372E+02  1.0390E+00   2.1268E+02  0.000E+00  0.000E+00  0.000E+00  1.02509E+03  3.214E+00  4.660E+01  4.749E-01  7.293E-01
   1   13    5     8     2    2.1268E+02  2.1762E-01   2.1246E+02  0.000E+00  0.000E+00  0.000E+00  1.01884E+03  3.210E+00  4.655E+01  4.744E-01  1.529E-01
   1   13    4     8     3    2.1246E+02 -2.5735E+00   2.1504E+02  0.000E+00  0.000E+00  0.000E+00  1.01259E+03  3.217E+00  4.665E+01  4.753E+00 -1.805E-01
   1   13    3     8     4    2.1504E+02 -3.7815E+00   2.1882E+02  0.000E+00  0.000E+00  0.000E+00  1.00636E+03  3.235E+00  4.690E+01  4.780E+00 -2.637E-01
   1   13    2     8     5    2.1882E+02 -2.6882E+00   2.2151E+02  0.000E+00  0.000E+00  0.000E+00  1.00013E+03  3.253E+00  4.717E+01  4.806E+00 -1.864E-01
   1   13    1     8     6    2.2151E+02 -1.9996E+00   2.2351E+02  0.000E+00  0.000E+00  0.000E+00  9.95141E+02  3.266E+00  4.735E+01  2.895E+00 -2.302E-01





UNSATURATED ZONE PACKAGE VOLUMETRIC BUDGET FOR  TIME STEP    30 STRESS PERIOD    4
  ------------------------------------------------------------------------------



     CUMULATIVE VOLUMES      L**3       RATES FOR THIS TIME STEP      L**3/T
     ------------------                 ------------------------

           IN:                                      IN:
           ---                                      ---
        INFILTRATION =     6754914.0000          INFILTRATION =           0.8475

          OUT:                                     OUT:
          ----                                     ----
              UZF ET =       67583.3382                UZF ET =           0.0169
        UZF RECHARGE =     4285007.2434          UZF RECHARGE =           0.5573

            IN - OUT =     2402323.4184              IN - OUT =           0.2733

          STORAGE:                                 STORAGE:
          --------                                 --------
      STORAGE CHANGE =     2402323.4038        STORAGE CHANGE =           0.2733

 PERCENT DISCREPANCY IS DIFFERENCE BETWEEN IN-OUT MINUS CHANGE IN STORAGE
 DIVIDED BY THE AVERAGE OF IN AND OUT TIMES 100

 PERCENT DISCREPANCY =           0.00     PERCENT DISCREPANCY =          -0.00






1
  VOLUMETRIC BUDGET FOR ENTIRE MODEL AT END OF TIME STEP   30, STRESS PERIOD   4
  ------------------------------------------------------------------------------

     CUMULATIVE VOLUMES      L**3       RATES FOR THIS TIME STEP      L**3/T
     ------------------                 ------------------------

           IN:                                      IN:
           ---                                      ---
               AWU WELLS =           0.0000                 AWU WELLS =           0.0000
      DIVERSION SEGMENTS =           0.0000        DIVERSION SEGMENTS =           0.0000
           GW IRRIGATION =           0.0000             GW IRRIGATION =           0.0000
           SW IRRIGATION =           0.0000             SW IRRIGATION =           0.0000
        SYSTEM LOSSES GW =           0.0000          SYSTEM LOSSES GW =           0.0000
        SYSTEM LOSSES SW =           0.0000          SYSTEM LOSSES SW =           0.0000

                TOTAL IN =           0.0000                  TOTAL IN =           0.0000

          OUT:                                     OUT:
          ----                                     ----
               AWU WELLS =           0.0000                 AWU WELLS =           0.0000
      DIVERSION SEGMENTS =           0.0000        DIVERSION SEGMENTS =           0.0000
           GW IRRIGATION =           0.0000             GW IRRIGATION =           0.0000
           SW IRRIGATION =           0.0000             SW IRRIGATION =           0.0000
        SYSTEM LOSSES GW =           0.0000          SYSTEM LOSSES GW =           0.0000
        SYSTEM LOSSES SW =           0.0000          SYSTEM LOSSES SW =           0.0000

               TOTAL OUT =           0.0000                 TOTAL OUT =           0.0000

                IN - OUT =           0.0000                  IN - OUT =           0.0000

     PERCENT DISCREPANCY =           0.00         PERCENT DISCREPANCY =           0.00



1
  VOLUMETRIC BUDGET FOR ENTIRE MODEL AT END OF TIME STEP   30, STRESS PERIOD   4
  ------------------------------------------------------------------------------

     CUMULATIVE VOLUMES      L**3       RATES FOR THIS TIME STEP      L**3/T
     ------------------                 ------------------------

           IN:                                      IN:
           ---                                      ---
             STORAGE     =     3782360.2500               STORAGE     =           0.8982
       CONSTANT HEAD     =           0.0000         CONSTANT HEAD     =           0.0000
     HEAD DEP BOUNDS     =     2277616.0000       HEAD DEP BOUNDS     =           0.2858
      STREAM LEAKAGE     =    99766536.0000        STREAM LEAKAGE     =          13.1242
        UZF RECHARGE     =     4285007.0000          UZF RECHARGE     =           0.5573
               GW ET     =           0.0000                 GW ET     =           0.0000
     SURFACE LEAKAGE     =           0.0000       SURFACE LEAKAGE     =           0.0000
           AWU WELLS     =           0.0000             AWU WELLS     =           0.0000

                TOTAL IN =   110111520.0000                  TOTAL IN =          14.8655

          OUT:                                     OUT:
          ----                                     ----
             STORAGE     =    28260730.0000               STORAGE     =           3.5139
       CONSTANT HEAD     =           0.0000         CONSTANT HEAD     =           0.0000
     HEAD DEP BOUNDS     =     2322155.2500       HEAD DEP BOUNDS     =           0.2976
      STREAM LEAKAGE     =    79370768.0000        STREAM LEAKAGE     =          11.0428
        UZF RECHARGE     =           0.0000          UZF RECHARGE     =           0.0000
               GW ET     =      165601.5156                 GW ET     =       1.0353E-02
     SURFACE LEAKAGE     =           0.0000       SURFACE LEAKAGE     =           0.0000
           AWU WELLS     =           0.0000             AWU WELLS     =           0.0000

               TOTAL OUT =   110119256.0000                 TOTAL OUT =          14.8647

                IN - OUT =       -7736.0000                  IN - OUT =       8.1444E-04

     PERCENT DISCREPANCY =          -0.01         PERCENT DISCREPANCY =           0.01






         TIME SUMMARY AT END OF TIME STEP   30 IN STRESS PERIOD    4
                    SECONDS     MINUTES      HOURS       DAYS        YEARS
                    -----------------------------------------------------------
   TIME STEP LENGTH  87600.      1460.0      24.333      1.0139     2.77588E-03
 STRESS PERIOD TIME 2.62800E+06  43800.      730.00      30.417     8.32763E-02
         TOTAL TIME 7.97040E+06 1.32840E+05  2214.0      92.250     0.25257    
1
1
                            STRESS PERIOD NO.    5, LENGTH =   2628000.    
                            -----------------------------------------------

                              NUMBER OF TIME STEPS =    30

                               MULTIPLIER FOR DELT =     1.000

                            INITIAL TIME STEP SIZE =   87600.00    

 REUSING NON-PARAMETER GHB CELLS FROM LAST STRESS PERIOD

      2 GHB CELLS

 REUSING STREAM SEGMENT DATA FROM LAST STRESS PERIOD



            AREAL INFILTRATION RATE
 READING ON UNIT   19 WITH FORMAT: (10F4.0)            

            1           2           3           4           5           6           7           8           9          10
 ........................................................................................................................
   1   1.0000E-10  2.0000E-10   0.000       0.000       0.000       0.000       0.000       0.000       0.000       0.000    
   2   2.0000E-10  1.0000E-10  2.0000E-10   0.000       0.000      8.0000E-10  8.0000E-10  5.0000E-10   0.000       0.000    
   3    0.000      5.0000E-10  1.0000E-10  1.0000E-10  8.0000E-10  8.0000E-10  5.0000E-10  5.0000E-10   0.000       0.000    
   4   8.0000E-10  5.0000E-10  1.0000E-10  1.0000E-10  1.0000E-10  1.0000E-10  1.0000E-10  1.0000E-10  2.0000E-10   0.000    
   5   8.0000E-10  5.0000E-10  1.0000E-10  1.0000E-10  1.0000E-10  1.0000E-10  1.0000E-10  1.0000E-10  1.0000E-10  1.0000E-10
   6   8.0000E-10  5.0000E-10  5.0000E-10  2.0000E-10  2.0000E-10  1.0000E-10  1.0000E-10  1.0000E-10  1.0000E-10  5.0000E-10
   7   8.0000E-10  5.0000E-10  5.0000E-10  2.0000E-10  2.0000E-10  1.0000E-10  1.0000E-10  2.0000E-10  2.0000E-10   0.000    
   8    0.000      5.0000E-10  5.0000E-10  2.0000E-10  2.0000E-10  1.0000E-10  1.0000E-10  2.0000E-10  5.0000E-10   0.000    
   9    0.000      5.0000E-10  5.0000E-10  2.0000E-10  2.0000E-10  1.0000E-10  1.0000E-10  2.0000E-10  5.0000E-10   0.000    
  10    0.000      5.0000E-10  5.0000E-10  2.0000E-10  2.0000E-10  1.0000E-10  1.0000E-10  2.0000E-10  5.0000E-10  8.0000E-10
  11    0.000      1.0000E-10  1.0000E-10  1.0000E-10  1.0000E-10  1.0000E-10  1.0000E-10  2.0000E-10  5.0000E-10   0.000    
  12   1.0000E-10  1.0000E-10  1.0000E-10  1.0000E-10  1.0000E-10  1.0000E-10  1.0000E-10  1.0000E-10  2.0000E-10   0.000    
  13   1.0000E-10  1.0000E-10  2.0000E-10  2.0000E-10  2.0000E-10  2.0000E-10  2.0000E-10  1.0000E-10  1.0000E-10   0.000    
  14    0.000      2.0000E-10  5.0000E-10  5.0000E-10  5.0000E-10  5.0000E-10  5.0000E-10  2.0000E-10  1.0000E-10   0.000    
  15    0.000       0.000      8.0000E-10  8.0000E-10  8.0000E-10  8.0000E-10   0.000       0.000       0.000       0.000    

                  ET RATE =  5.000000E-09

 USING ET EXTINCTION DEPTH FROM PREVIOUS STRESS PERIOD. CURRENT PERIOD IS:       5

 USING EXTINCTION WATER CONTENT FROM PREVIOUS STRESS PERIOD. CURRENT PERIOD IS:       5

 PROCESSING AWU STRESS PERIOD DATA

 READING AWU STRESS PERIOD DATA

 READING IRRIGATION WELL

 END PROCESSING AWU STRESS PERIOD DATA OPTIONS
 
 SOLVING FOR HEAD 
                                                   Max.-Head-Change                         Max.-Flux-Residual
  Residual-Control   Outer-Iter.   Inner-Iter.     Column Row Layer    Maximum-Head-Change  Column Row Layer    Maximum-Flux-Residual          L2-NORM 
          0                 1           2             4    7     1      -0.1910683604E+00       4    8    1        -0.9992152352E+01      0.2451892301E+02
          0                 2           2             4    7     1       0.1848529548E-01       4    8    1         0.9971782165E+00      0.2444816313E+01
          0                 3           2             4    7     1      -0.1258782131E-02       4    8    1        -0.6980349374E-01      0.1711108204E+00
          0                 4           1             4    7     1       0.5008810965E-04       4    8    1         0.2854962289E-02      0.6998193659E-02

    ------------------------------------------------
       NWT REQUIRED            4 OUTER ITERATIONS 
       AND A TOTAL OF          7 INNER ITERATIONS.
    ------------------------------------------------

 OUTPUT CONTROL FOR STRESS PERIOD    5   TIME STEP    1
    PRINT BUDGET
    SAVE BUDGET
 UBDSV1 SAVING "         STORAGE" ON UNIT 102 AT TIME STEP  1, STRESS PERIOD   5
 UBDSV2 SAVING "   CONSTANT HEAD" ON UNIT 102 AT TIME STEP  1, STRESS PERIOD   5
 UBDSV1 SAVING "FLOW RIGHT FACE " ON UNIT 102 AT TIME STEP  1, STRESS PERIOD   5
 UBDSV1 SAVING "FLOW FRONT FACE " ON UNIT 102 AT TIME STEP  1, STRESS PERIOD   5

  HEAD DEP BOUNDS   PERIOD    5   STEP     1
 BOUNDARY      1   LAYER   1   ROW    13   COL     1   RATE   -0.297242    
 BOUNDARY      2   LAYER   1   ROW    14   COL     9   RATE    0.285766    



 STREAM LISTING     PERIOD      5   STEP        1

 LAYER ROW COL. STREAM  RCH.  FLOW INTO     FLOW TO   FLOW OUT OF   OVRLND.     DIRECT     STREAM       STREAM     STREAM     STREAM   STREAMBED  STREAMBED
                SEG.NO.  NO.  STRM. RCH.    AQUIFER    STRM. RCH.    RUNOFF     PRECIP       ET          HEAD       DEPTH      WIDTH   CONDCTNC.   GRADIENT

   1    1    1     1     1    2.8000E+01  2.5860E-01   2.7741E+01  0.000E+00  0.000E+00  0.000E+00  1.09427E+03  1.221E+00  1.361E+01  6.126E-02  1.407E+00
   1    2    2     1     2    2.7741E+01  4.0002E-01   2.7341E+01  0.000E+00  0.000E+00  0.000E+00  1.08928E+03  1.217E+00  1.355E+01  9.487E-02  1.406E+00
   1    3    3     1     3    2.7341E+01  3.4070E-01   2.7001E+01  0.000E+00  0.000E+00  0.000E+00  1.08363E+03  1.212E+00  1.348E+01  8.090E-02  1.404E+00
   1    3    4     1     4    2.7001E+01  3.1335E-01   2.6687E+01  0.000E+00  0.000E+00  0.000E+00  1.07861E+03  1.207E+00  1.342E+01  7.448E-02  1.402E+00
   1    4    5     2     1    2.4687E+01  3.2711E-01   2.4360E+01  0.000E+00  0.000E+00  0.000E+00  1.07313E+03  1.194E+00  1.200E+01  7.800E-02  1.398E+00
   1    5    6     2     2    2.4360E+01  2.5111E-01   2.4109E+01  0.000E+00  0.000E+00  0.000E+00  1.06769E+03  1.185E+00  1.200E+01  6.000E-02  1.395E+00
   1    6    6     2     3    2.4109E+01  2.5067E-01   2.3858E+01  0.000E+00  0.000E+00  0.000E+00  1.06297E+03  1.178E+00  1.200E+01  6.000E-02  1.393E+00
   1    7    6     2     4    2.3858E+01  2.5023E-01   2.3608E+01  0.000E+00  0.000E+00  0.000E+00  1.05825E+03  1.170E+00  1.200E+01  6.000E-02  1.390E+00
   1    8    6     2     5    2.3608E+01  2.4978E-01   2.3358E+01  0.000E+00  0.000E+00  0.000E+00  1.05352E+03  1.163E+00  1.200E+01  6.000E-02  1.388E+00
   1    3    5     3     1    2.0000E+00  2.8252E-01   1.7175E+00  0.000E+00  0.000E+00  0.000E+00  1.07555E+03  1.909E+00  9.636E+00  7.227E-02  1.955E+00
   1    3    6     3     2    1.7175E+00  2.4905E-01   1.4684E+00  0.000E+00  0.000E+00  0.000E+00  1.07264E+03  1.727E+00  8.909E+00  6.682E-02  1.864E+00
   1    3    7     3     3    1.4684E+00  1.9718E-01   1.2712E+00  0.000E+00  0.000E+00  0.000E+00  1.06987E+03  1.555E+00  8.218E+00  5.547E-02  1.777E+00
   1    4    8     3     4    1.2712E+00  2.2567E-01   1.0456E+00  0.000E+00  0.000E+00  0.000E+00  1.06682E+03  1.364E+00  7.455E+00  6.709E-02  1.682E+00
   1    5    8     3     5    1.0456E+00  1.5790E-01   8.8768E-01  0.000E+00  0.000E+00  0.000E+00  1.06362E+03  1.164E+00  6.655E+00  4.991E-02  1.582E+00
   1    6    8     3     6    8.8768E-01  5.5980E-02   8.3170E-01  0.000E+00  0.000E+00  0.000E+00  1.06158E+03  1.036E+00  6.145E+00  1.844E-02  1.518E+00
   1    5   10     4     1    1.0000E+01  9.0919E-02   9.9091E+00  0.000E+00  0.000E+00  0.000E+00  1.07836E+03  6.368E-01  1.000E+01  2.500E-02  1.212E+00
   1    5    9     4     2    9.9091E+00  1.8158E-01   9.7275E+00  0.000E+00  0.000E+00  0.000E+00  1.07154E+03  6.315E-01  1.000E+01  5.000E-02  1.211E+00
   1    6    8     4     3    9.7275E+00  1.2689E-01   9.6006E+00  0.000E+00  0.000E+00  0.000E+00  1.06381E+03  6.256E-01  1.000E+01  3.500E-02  1.209E+00
   1    6    8     5     1    1.0432E+01  2.2686E-01   1.0205E+01  0.000E+00  0.000E+00  0.000E+00  1.05868E+03  6.790E-01  1.542E+01  6.166E-02  1.226E+00
   1    7    7     5     2    1.0205E+01  2.7894E-01   9.9265E+00  0.000E+00  0.000E+00  0.000E+00  1.05417E+03  6.732E-01  1.519E+01  7.594E-02  1.224E+00
   1    8    7     5     3    9.9265E+00  1.9221E-01   9.7343E+00  0.000E+00  0.000E+00  0.000E+00  1.04992E+03  6.676E-01  1.497E+01  5.241E-02  1.223E+00
   1    8    6     5     4    9.7343E+00  1.3577E-01   9.5985E+00  0.000E+00  0.000E+00  0.000E+00  1.04691E+03  6.637E-01  1.482E+01  3.706E-02  1.221E+00
   1    9    6     6     1    3.2957E+01  2.6627E-01   3.2691E+01  0.000E+00  0.000E+00  0.000E+00  1.04417E+03  1.438E+00  1.200E+01  6.000E-02  1.479E+00
   1   10    7     6     2    3.2691E+01  2.6584E-01   3.2425E+01  0.000E+00  0.000E+00  0.000E+00  1.03961E+03  1.431E+00  1.200E+01  6.000E-02  1.477E+00
   1   11    7     6     3    3.2425E+01  2.6542E-01   3.2159E+01  0.000E+00  0.000E+00  0.000E+00  1.03506E+03  1.424E+00  1.200E+01  6.000E-02  1.475E+00
   1   12    7     6     4    3.2159E+01  2.6500E-01   3.1894E+01  0.000E+00  0.000E+00  0.000E+00  1.03051E+03  1.417E+00  1.200E+01  6.000E-02  1.472E+00
   1   13    7     6     5    3.1894E+01  4.3027E-03   3.1890E+01  0.000E+00  0.000E+00  0.000E+00  1.02732E+03  1.413E+00  1.200E+01  2.400E-02  5.976E-02
   1   14    9     7     1    1.5000E+02  1.3359E+00   1.4866E+02  0.000E+00  0.000E+00  0.000E+00  1.03987E+03  2.288E+00  5.529E+01  5.593E-01  7.962E-01
   1   13    8     7     2    1.4866E+02  1.8265E+00   1.4684E+02  0.000E+00  0.000E+00  0.000E+00  1.03478E+03  2.279E+00  5.526E+01  6.148E-01  9.903E-01
   1   13    7     7     3    1.4684E+02  1.4224E+00   1.4542E+02  0.000E+00  0.000E+00  0.000E+00  1.02969E+03  2.271E+00  5.522E+01  5.585E-01  8.490E-01
   1   13    6     8     1    1.7731E+02  8.7338E-01   1.7643E+02  0.000E+00  0.000E+00  0.000E+00  1.02487E+03  2.996E+00  4.345E+01  4.427E-01  6.575E-01
   1   13    5     8     2    1.7643E+02  1.0791E-01   1.7632E+02  0.000E+00  0.000E+00  0.000E+00  1.01862E+03  2.993E+00  4.340E+01  4.423E-01  8.132E-02
   1   13    4     8     3    1.7632E+02 -3.2765E+00   1.7960E+02  0.000E+00  0.000E+00  0.000E+00  1.01238E+03  3.003E+00  4.355E+01  4.438E+00 -2.461E-01
   1   13    3     8     4    1.7960E+02 -4.3987E+00   1.8400E+02  0.000E+00  0.000E+00  0.000E+00  1.00615E+03  3.027E+00  4.390E+01  4.473E+00 -3.278E-01
   1   13    2     8     5    1.8400E+02 -3.3600E+00   1.8736E+02  0.000E+00  0.000E+00  0.000E+00  9.99927E+02  3.052E+00  4.425E+01  4.509E+00 -2.484E-01
   1   13    1     8     6    1.8736E+02 -2.3891E+00   1.8975E+02  0.000E+00  0.000E+00  0.000E+00  9.94944E+02  3.069E+00  4.450E+01  2.721E+00 -2.927E-01



 UBDSV3 SAVING "           GW ET" ON UNIT  61 AT TIME STEP  1, STRESS PERIOD   5
 UBDSV3 SAVING "    UZF RECHARGE" ON UNIT  61 AT TIME STEP  1, STRESS PERIOD   5
 UBDSV3 SAVING " SURFACE LEAKAGE" ON UNIT  61 AT TIME STEP  1, STRESS PERIOD   5
 UBDSV3 SAVING "       HORT+DUNN" ON UNIT  61 AT TIME STEP  1, STRESS PERIOD   5
 UBDSV3 SAVING "  STORAGE CHANGE" ON UNIT  61 AT TIME STEP  1, STRESS PERIOD   5


UNSATURATED ZONE PACKAGE VOLUMETRIC BUDGET FOR  TIME STEP     1 STRESS PERIOD    5
  ------------------------------------------------------------------------------



     CUMULATIVE VOLUMES      L**3       RATES FOR THIS TIME STEP      L**3/T
     ------------------                 ------------------------

           IN:                                      IN:
           ---                                      ---
        INFILTRATION =    12085155.0000          INFILTRATION =          60.8475

          OUT:                                     OUT:
          ----                                     ----
              UZF ET =      145477.7358                UZF ET =           0.8892
        UZF RECHARGE =     4315956.4508          UZF RECHARGE =           0.3533

            IN - OUT =     7623720.8134              IN - OUT =          59.6050

          STORAGE:                                 STORAGE:
          --------                                 --------
      STORAGE CHANGE =     7623720.9069        STORAGE CHANGE =          59.6050

 PERCENT DISCREPANCY IS DIFFERENCE BETWEEN IN-OUT MINUS CHANGE IN STORAGE
 DIVIDED BY THE AVERAGE OF IN AND OUT TIMES 100

 PERCENT DISCREPANCY =           0.00     PERCENT DISCREPANCY =           0.00






 

            AWU WELLS     PERIOD    5   STEP   1
 AWU WELL      1   LAYER   1   ROW     6   COL     4   RATE    -10.0000    
 AWU WELL      2   LAYER   1   ROW     6   COL     5   RATE    -10.0000    
 AWU WELL      3   LAYER   1   ROW     7   COL     4   RATE    -10.0000    
 AWU WELL      4   LAYER   1   ROW     7   COL     5   RATE    -10.0000    
 AWU WELL      5   LAYER   1   ROW     8   COL     4   RATE    -10.0000    
 AWU WELL      6   LAYER   1   ROW     8   COL     5   RATE    -10.0000    
 
 

        GW IRRIGATION     PERIOD    5   STEP   1
 AWU WELL      1   ROW     6   COL     4   RATE     10.0000    
 AWU WELL      2   ROW     6   COL     5   RATE     10.0000    
 AWU WELL      3   ROW     7   COL     4   RATE     10.0000    
 AWU WELL      4   ROW     7   COL     5   RATE     10.0000    
 AWU WELL      5   ROW     8   COL     4   RATE     10.0000    
 AWU WELL      6   ROW     8   COL     5   RATE     10.0000    
 
1
  VOLUMETRIC BUDGET FOR ENTIRE MODEL AT END OF TIME STEP    1, STRESS PERIOD   5
  ------------------------------------------------------------------------------

     CUMULATIVE VOLUMES      L**3       RATES FOR THIS TIME STEP      L**3/T
     ------------------                 ------------------------

           IN:                                      IN:
           ---                                      ---
               AWU WELLS =     5256000.0000                 AWU WELLS =          60.0000
      DIVERSION SEGMENTS =           0.0000        DIVERSION SEGMENTS =           0.0000
           GW IRRIGATION =           0.0000             GW IRRIGATION =           0.0000
           SW IRRIGATION =           0.0000             SW IRRIGATION =           0.0000
        SYSTEM LOSSES GW =           0.0000          SYSTEM LOSSES GW =           0.0000
        SYSTEM LOSSES SW =           0.0000          SYSTEM LOSSES SW =           0.0000

                TOTAL IN =     5256000.0000                  TOTAL IN =          60.0000

          OUT:                                     OUT:
          ----                                     ----
               AWU WELLS =           0.0000                 AWU WELLS =           0.0000
      DIVERSION SEGMENTS =           0.0000        DIVERSION SEGMENTS =           0.0000
           GW IRRIGATION =     5256000.0000             GW IRRIGATION =          60.0000
           SW IRRIGATION =           0.0000             SW IRRIGATION =           0.0000
        SYSTEM LOSSES GW =           0.0000          SYSTEM LOSSES GW =           0.0000
        SYSTEM LOSSES SW =           0.0000          SYSTEM LOSSES SW =           0.0000

               TOTAL OUT =     5256000.0000                 TOTAL OUT =          60.0000

                IN - OUT =           0.0000                  IN - OUT =           0.0000

     PERCENT DISCREPANCY =           0.00         PERCENT DISCREPANCY =           0.00



1
  VOLUMETRIC BUDGET FOR ENTIRE MODEL AT END OF TIME STEP    1, STRESS PERIOD   5
  ------------------------------------------------------------------------------

     CUMULATIVE VOLUMES      L**3       RATES FOR THIS TIME STEP      L**3/T
     ------------------                 ------------------------

           IN:                                      IN:
           ---                                      ---
             STORAGE     =     9371225.0000               STORAGE     =          63.7998
       CONSTANT HEAD     =           0.0000         CONSTANT HEAD     =           0.0000
     HEAD DEP BOUNDS     =     2302649.0000       HEAD DEP BOUNDS     =           0.2858
      STREAM LEAKAGE     =   100789352.0000        STREAM LEAKAGE     =          11.6760
        UZF RECHARGE     =     4315956.0000          UZF RECHARGE     =           0.3533
               GW ET     =           0.0000                 GW ET     =           0.0000
     SURFACE LEAKAGE     =           0.0000       SURFACE LEAKAGE     =           0.0000
           AWU WELLS     =           0.0000             AWU WELLS     =           0.0000

                TOTAL IN =   116779184.0000                  TOTAL IN =          76.1149

          OUT:                                     OUT:
          ----                                     ----
             STORAGE     =    28425204.0000               STORAGE     =           1.8776
       CONSTANT HEAD     =           0.0000         CONSTANT HEAD     =           0.0000
     HEAD DEP BOUNDS     =     2348193.7500       HEAD DEP BOUNDS     =           0.2972
      STREAM LEAKAGE     =    80546736.0000        STREAM LEAKAGE     =          13.4243
        UZF RECHARGE     =           0.0000          UZF RECHARGE     =           0.0000
               GW ET     =      210797.7969                 GW ET     =           0.5159
     SURFACE LEAKAGE     =           0.0000       SURFACE LEAKAGE     =           0.0000
           AWU WELLS     =     5256000.0000             AWU WELLS     =          60.0000

               TOTAL OUT =   116786936.0000                 TOTAL OUT =          76.1151

                IN - OUT =       -7752.0000                  IN - OUT =      -1.6022E-04

     PERCENT DISCREPANCY =          -0.01         PERCENT DISCREPANCY =          -0.00






         TIME SUMMARY AT END OF TIME STEP    1 IN STRESS PERIOD    5
                    SECONDS     MINUTES      HOURS       DAYS        YEARS
                    -----------------------------------------------------------
   TIME STEP LENGTH  87600.      1460.0      24.333      1.0139     2.77588E-03
 STRESS PERIOD TIME  87600.      1460.0      24.333      1.0139     2.77588E-03
         TOTAL TIME 8.05800E+06 1.34300E+05  2238.3      93.264     0.25534    
1
 
 SOLVING FOR HEAD 
                                                   Max.-Head-Change                         Max.-Flux-Residual
  Residual-Control   Outer-Iter.   Inner-Iter.     Column Row Layer    Maximum-Head-Change  Column Row Layer    Maximum-Flux-Residual          L2-NORM 
          0                 1           2             4    7     1      -0.1901453552E+00       4    7    1        -0.9940771226E+01      0.2405801304E+02
          0                 2           2             4    7     1       0.1849447473E-01       4    7    1         0.9940613251E+00      0.2403027365E+01
          0                 3           2             4    7     1      -0.1259407671E-02       4    7    1        -0.6958447541E-01      0.1681893399E+00
          0                 4           1             4    7     1       0.5011299816E-04       4    7    1         0.2846008308E-02      0.6878914369E-02

    ------------------------------------------------
       NWT REQUIRED            4 OUTER ITERATIONS 
       AND A TOTAL OF          7 INNER ITERATIONS.
    ------------------------------------------------

 OUTPUT CONTROL FOR STRESS PERIOD    5   TIME STEP    2
    PRINT BUDGET
    SAVE BUDGET
 UBDSV1 SAVING "         STORAGE" ON UNIT 102 AT TIME STEP  2, STRESS PERIOD   5
 UBDSV2 SAVING "   CONSTANT HEAD" ON UNIT 102 AT TIME STEP  2, STRESS PERIOD   5
 UBDSV1 SAVING "FLOW RIGHT FACE " ON UNIT 102 AT TIME STEP  2, STRESS PERIOD   5
 UBDSV1 SAVING "FLOW FRONT FACE " ON UNIT 102 AT TIME STEP  2, STRESS PERIOD   5

  HEAD DEP BOUNDS   PERIOD    5   STEP     2
 BOUNDARY      1   LAYER   1   ROW    13   COL     1   RATE   -0.296905    
 BOUNDARY      2   LAYER   1   ROW    14   COL     9   RATE    0.285765    



 STREAM LISTING     PERIOD      5   STEP        2

 LAYER ROW COL. STREAM  RCH.  FLOW INTO     FLOW TO   FLOW OUT OF   OVRLND.     DIRECT     STREAM       STREAM     STREAM     STREAM   STREAMBED  STREAMBED
                SEG.NO.  NO.  STRM. RCH.    AQUIFER    STRM. RCH.    RUNOFF     PRECIP       ET          HEAD       DEPTH      WIDTH   CONDCTNC.   GRADIENT

   1    1    1     1     1    2.8000E+01  2.5860E-01   2.7741E+01  0.000E+00  0.000E+00  0.000E+00  1.09427E+03  1.221E+00  1.361E+01  6.126E-02  1.407E+00
   1    2    2     1     2    2.7741E+01  4.0002E-01   2.7341E+01  0.000E+00  0.000E+00  0.000E+00  1.08928E+03  1.217E+00  1.355E+01  9.487E-02  1.406E+00
   1    3    3     1     3    2.7341E+01  3.4070E-01   2.7001E+01  0.000E+00  0.000E+00  0.000E+00  1.08363E+03  1.212E+00  1.348E+01  8.090E-02  1.404E+00
   1    3    4     1     4    2.7001E+01  3.1335E-01   2.6687E+01  0.000E+00  0.000E+00  0.000E+00  1.07861E+03  1.207E+00  1.342E+01  7.448E-02  1.402E+00
   1    4    5     2     1    2.4687E+01  3.2711E-01   2.4360E+01  0.000E+00  0.000E+00  0.000E+00  1.07313E+03  1.194E+00  1.200E+01  7.800E-02  1.398E+00
   1    5    6     2     2    2.4360E+01  2.5111E-01   2.4109E+01  0.000E+00  0.000E+00  0.000E+00  1.06769E+03  1.185E+00  1.200E+01  6.000E-02  1.395E+00
   1    6    6     2     3    2.4109E+01  2.5067E-01   2.3858E+01  0.000E+00  0.000E+00  0.000E+00  1.06297E+03  1.178E+00  1.200E+01  6.000E-02  1.393E+00
   1    7    6     2     4    2.3858E+01  2.5023E-01   2.3608E+01  0.000E+00  0.000E+00  0.000E+00  1.05825E+03  1.170E+00  1.200E+01  6.000E-02  1.390E+00
   1    8    6     2     5    2.3608E+01  2.4978E-01   2.3358E+01  0.000E+00  0.000E+00  0.000E+00  1.05352E+03  1.163E+00  1.200E+01  6.000E-02  1.388E+00
   1    3    5     3     1    2.0000E+00  2.8252E-01   1.7175E+00  0.000E+00  0.000E+00  0.000E+00  1.07555E+03  1.909E+00  9.636E+00  7.227E-02  1.955E+00
   1    3    6     3     2    1.7175E+00  2.4905E-01   1.4684E+00  0.000E+00  0.000E+00  0.000E+00  1.07264E+03  1.727E+00  8.909E+00  6.682E-02  1.864E+00
   1    3    7     3     3    1.4684E+00  1.9718E-01   1.2712E+00  0.000E+00  0.000E+00  0.000E+00  1.06987E+03  1.555E+00  8.218E+00  5.547E-02  1.777E+00
   1    4    8     3     4    1.2712E+00  2.2567E-01   1.0456E+00  0.000E+00  0.000E+00  0.000E+00  1.06682E+03  1.364E+00  7.455E+00  6.709E-02  1.682E+00
   1    5    8     3     5    1.0456E+00  1.5790E-01   8.8768E-01  0.000E+00  0.000E+00  0.000E+00  1.06362E+03  1.164E+00  6.655E+00  4.991E-02  1.582E+00
   1    6    8     3     6    8.8768E-01  5.5980E-02   8.3170E-01  0.000E+00  0.000E+00  0.000E+00  1.06158E+03  1.036E+00  6.145E+00  1.844E-02  1.518E+00
   1    5   10     4     1    1.0000E+01  9.0919E-02   9.9091E+00  0.000E+00  0.000E+00  0.000E+00  1.07836E+03  6.368E-01  1.000E+01  2.500E-02  1.212E+00
   1    5    9     4     2    9.9091E+00  1.8158E-01   9.7275E+00  0.000E+00  0.000E+00  0.000E+00  1.07154E+03  6.315E-01  1.000E+01  5.000E-02  1.211E+00
   1    6    8     4     3    9.7275E+00  1.2689E-01   9.6006E+00  0.000E+00  0.000E+00  0.000E+00  1.06381E+03  6.256E-01  1.000E+01  3.500E-02  1.209E+00
   1    6    8     5     1    1.0432E+01  2.2686E-01   1.0205E+01  0.000E+00  0.000E+00  0.000E+00  1.05868E+03  6.790E-01  1.542E+01  6.166E-02  1.226E+00
   1    7    7     5     2    1.0205E+01  2.7894E-01   9.9265E+00  0.000E+00  0.000E+00  0.000E+00  1.05417E+03  6.732E-01  1.519E+01  7.594E-02  1.224E+00
   1    8    7     5     3    9.9265E+00  1.9221E-01   9.7343E+00  0.000E+00  0.000E+00  0.000E+00  1.04992E+03  6.676E-01  1.497E+01  5.241E-02  1.223E+00
   1    8    6     5     4    9.7343E+00  1.3577E-01   9.5985E+00  0.000E+00  0.000E+00  0.000E+00  1.04691E+03  6.637E-01  1.482E+01  3.706E-02  1.221E+00
   1    9    6     6     1    3.2957E+01  2.6627E-01   3.2691E+01  0.000E+00  0.000E+00  0.000E+00  1.04417E+03  1.438E+00  1.200E+01  6.000E-02  1.479E+00
   1   10    7     6     2    3.2691E+01  2.6584E-01   3.2425E+01  0.000E+00  0.000E+00  0.000E+00  1.03961E+03  1.431E+00  1.200E+01  6.000E-02  1.477E+00
   1   11    7     6     3    3.2425E+01  2.6542E-01   3.2159E+01  0.000E+00  0.000E+00  0.000E+00  1.03506E+03  1.424E+00  1.200E+01  6.000E-02  1.475E+00
   1   12    7     6     4    3.2159E+01  2.6500E-01   3.1894E+01  0.000E+00  0.000E+00  0.000E+00  1.03051E+03  1.417E+00  1.200E+01  6.000E-02  1.472E+00
   1   13    7     6     5    3.1894E+01  4.2939E-03   3.1890E+01  0.000E+00  0.000E+00  0.000E+00  1.02732E+03  1.413E+00  1.200E+01  2.400E-02  5.964E-02
   1   14    9     7     1    1.5000E+02  1.3359E+00   1.4866E+02  0.000E+00  0.000E+00  0.000E+00  1.03987E+03  2.288E+00  5.529E+01  5.593E-01  7.962E-01
   1   13    8     7     2    1.4866E+02  1.8263E+00   1.4684E+02  0.000E+00  0.000E+00  0.000E+00  1.03478E+03  2.279E+00  5.526E+01  6.148E-01  9.902E-01
   1   13    7     7     3    1.4684E+02  1.4222E+00   1.4542E+02  0.000E+00  0.000E+00  0.000E+00  1.02969E+03  2.271E+00  5.522E+01  5.585E-01  8.489E-01
   1   13    6     8     1    1.7731E+02  8.7434E-01   1.7643E+02  0.000E+00  0.000E+00  0.000E+00  1.02487E+03  2.996E+00  4.345E+01  4.427E-01  6.583E-01
   1   13    5     8     2    1.7643E+02  1.0892E-01   1.7632E+02  0.000E+00  0.000E+00  0.000E+00  1.01862E+03  2.993E+00  4.340E+01  4.423E-01  8.209E-02
   1   13    4     8     3    1.7632E+02 -3.2102E+00   1.7953E+02  0.000E+00  0.000E+00  0.000E+00  1.01238E+03  3.003E+00  4.354E+01  4.437E+00 -2.411E-01
   1   13    3     8     4    1.7953E+02 -4.3382E+00   1.8387E+02  0.000E+00  0.000E+00  0.000E+00  1.00615E+03  3.027E+00  4.389E+01  4.472E+00 -3.233E-01
   1   13    2     8     5    1.8387E+02 -3.2991E+00   1.8717E+02  0.000E+00  0.000E+00  0.000E+00  9.99926E+02  3.051E+00  4.423E+01  4.507E+00 -2.440E-01
   1   13    1     8     6    1.8717E+02 -2.3673E+00   1.8954E+02  0.000E+00  0.000E+00  0.000E+00  9.94943E+02  3.068E+00  4.448E+01  2.720E+00 -2.901E-01



 UBDSV3 SAVING "           GW ET" ON UNIT  61 AT TIME STEP  2, STRESS PERIOD   5
 UBDSV3 SAVING "    UZF RECHARGE" ON UNIT  61 AT TIME STEP  2, STRESS PERIOD   5
 UBDSV3 SAVING " SURFACE LEAKAGE" ON UNIT  61 AT TIME STEP  2, STRESS PERIOD   5
 UBDSV3 SAVING "       HORT+DUNN" ON UNIT  61 AT TIME STEP  2, STRESS PERIOD   5
 UBDSV3 SAVING "  STORAGE CHANGE" ON UNIT  61 AT TIME STEP  2, STRESS PERIOD   5


UNSATURATED ZONE PACKAGE VOLUMETRIC BUDGET FOR  TIME STEP     2 STRESS PERIOD    5
  ------------------------------------------------------------------------------



     CUMULATIVE VOLUMES      L**3       RATES FOR THIS TIME STEP      L**3/T
     ------------------                 ------------------------

           IN:                                      IN:
           ---                                      ---
        INFILTRATION =    17415396.0000          INFILTRATION =          60.8475

          OUT:                                     OUT:
          ----                                     ----
              UZF ET =      230305.3462                UZF ET =           0.9684
        UZF RECHARGE =     4346061.3871          UZF RECHARGE =           0.3437

            IN - OUT =    12839029.2667              IN - OUT =          59.5355

          STORAGE:                                 STORAGE:
          --------                                 --------
      STORAGE CHANGE =    12839029.4671        STORAGE CHANGE =          59.5355

 PERCENT DISCREPANCY IS DIFFERENCE BETWEEN IN-OUT MINUS CHANGE IN STORAGE
 DIVIDED BY THE AVERAGE OF IN AND OUT TIMES 100

 PERCENT DISCREPANCY =           0.00     PERCENT DISCREPANCY =           0.00






 

            AWU WELLS     PERIOD    5   STEP   2
 AWU WELL      1   LAYER   1   ROW     6   COL     4   RATE    -10.0000    
 AWU WELL      2   LAYER   1   ROW     6   COL     5   RATE    -10.0000    
 AWU WELL      3   LAYER   1   ROW     7   COL     4   RATE    -10.0000    
 AWU WELL      4   LAYER   1   ROW     7   COL     5   RATE    -10.0000    
 AWU WELL      5   LAYER   1   ROW     8   COL     4   RATE    -10.0000    
 AWU WELL      6   LAYER   1   ROW     8   COL     5   RATE    -10.0000    
 
 

        GW IRRIGATION     PERIOD    5   STEP   2
 AWU WELL      1   ROW     6   COL     4   RATE     10.0000    
 AWU WELL      2   ROW     6   COL     5   RATE     10.0000    
 AWU WELL      3   ROW     7   COL     4   RATE     10.0000    
 AWU WELL      4   ROW     7   COL     5   RATE     10.0000    
 AWU WELL      5   ROW     8   COL     4   RATE     10.0000    
 AWU WELL      6   ROW     8   COL     5   RATE     10.0000    
 
1
  VOLUMETRIC BUDGET FOR ENTIRE MODEL AT END OF TIME STEP    2, STRESS PERIOD   5
  ------------------------------------------------------------------------------

     CUMULATIVE VOLUMES      L**3       RATES FOR THIS TIME STEP      L**3/T
     ------------------                 ------------------------

           IN:                                      IN:
           ---                                      ---
               AWU WELLS =    10512000.0000                 AWU WELLS =          60.0000
      DIVERSION SEGMENTS =           0.0000        DIVERSION SEGMENTS =           0.0000
           GW IRRIGATION =           0.0000             GW IRRIGATION =           0.0000
           SW IRRIGATION =           0.0000             SW IRRIGATION =           0.0000
        SYSTEM LOSSES GW =           0.0000          SYSTEM LOSSES GW =           0.0000
        SYSTEM LOSSES SW =           0.0000          SYSTEM LOSSES SW =           0.0000

                TOTAL IN =    10512000.0000                  TOTAL IN =          60.0000

          OUT:                                     OUT:
          ----                                     ----
               AWU WELLS =           0.0000                 AWU WELLS =           0.0000
      DIVERSION SEGMENTS =           0.0000        DIVERSION SEGMENTS =           0.0000
           GW IRRIGATION =    10512000.0000             GW IRRIGATION =          60.0000
           SW IRRIGATION =           0.0000             SW IRRIGATION =           0.0000
        SYSTEM LOSSES GW =           0.0000          SYSTEM LOSSES GW =           0.0000
        SYSTEM LOSSES SW =           0.0000          SYSTEM LOSSES SW =           0.0000

               TOTAL OUT =    10512000.0000                 TOTAL OUT =          60.0000

                IN - OUT =           0.0000                  IN - OUT =           0.0000

     PERCENT DISCREPANCY =           0.00         PERCENT DISCREPANCY =           0.00



1
  VOLUMETRIC BUDGET FOR ENTIRE MODEL AT END OF TIME STEP    2, STRESS PERIOD   5
  ------------------------------------------------------------------------------

     CUMULATIVE VOLUMES      L**3       RATES FOR THIS TIME STEP      L**3/T
     ------------------                 ------------------------

           IN:                                      IN:
           ---                                      ---
             STORAGE     =    14935214.0000               STORAGE     =          63.5159
       CONSTANT HEAD     =           0.0000         CONSTANT HEAD     =           0.0000
     HEAD DEP BOUNDS     =     2327682.0000       HEAD DEP BOUNDS     =           0.2858
      STREAM LEAKAGE     =   101812304.0000        STREAM LEAKAGE     =          11.6775
        UZF RECHARGE     =     4346061.0000          UZF RECHARGE     =           0.3437
               GW ET     =           0.0000                 GW ET     =           0.0000
     SURFACE LEAKAGE     =           0.0000       SURFACE LEAKAGE     =           0.0000
           AWU WELLS     =           0.0000             AWU WELLS     =           0.0000

                TOTAL IN =   123421264.0000                  TOTAL IN =          75.8228

          OUT:                                     OUT:
          ----                                     ----
             STORAGE     =    28582616.0000               STORAGE     =           1.7969
       CONSTANT HEAD     =           0.0000         CONSTANT HEAD     =           0.0000
     HEAD DEP BOUNDS     =     2374202.7500       HEAD DEP BOUNDS     =           0.2969
      STREAM LEAKAGE     =    81704352.0000        STREAM LEAKAGE     =          13.2148
        UZF RECHARGE     =           0.0000          UZF RECHARGE     =           0.0000
               GW ET     =      255852.2656                 GW ET     =           0.5143
     SURFACE LEAKAGE     =           0.0000       SURFACE LEAKAGE     =           0.0000
           AWU WELLS     =    10512000.0000             AWU WELLS     =          60.0000

               TOTAL OUT =   123429024.0000                 TOTAL OUT =          75.8230

                IN - OUT =       -7760.0000                  IN - OUT =      -1.6022E-04

     PERCENT DISCREPANCY =          -0.01         PERCENT DISCREPANCY =          -0.00






         TIME SUMMARY AT END OF TIME STEP    2 IN STRESS PERIOD    5
                    SECONDS     MINUTES      HOURS       DAYS        YEARS
                    -----------------------------------------------------------
   TIME STEP LENGTH  87600.      1460.0      24.333      1.0139     2.77588E-03
 STRESS PERIOD TIME 1.75200E+05  2920.0      48.667      2.0278     5.55175E-03
         TOTAL TIME 8.14560E+06 1.35760E+05  2262.7      94.278     0.25812    
1
 
 SOLVING FOR HEAD 
                                                   Max.-Head-Change                         Max.-Flux-Residual
  Residual-Control   Outer-Iter.   Inner-Iter.     Column Row Layer    Maximum-Head-Change  Column Row Layer    Maximum-Flux-Residual          L2-NORM 
          0                 1           2             4    7     1      -0.1890446578E+00       4    7    1        -0.9887501112E+01      0.2361971137E+02
          0                 2           2             4    7     1       0.1838860773E-01       4    7    1         0.9887321964E+00      0.2361461320E+01
          0                 3           2             4    7     1      -0.1252198781E-02       4    7    1        -0.6921145320E-01      0.1652831342E+00
          0                 4           1             4    7     1       0.4982614854E-04       4    7    1         0.2830751601E-02      0.6760199215E-02

    ------------------------------------------------
       NWT REQUIRED            4 OUTER ITERATIONS 
       AND A TOTAL OF          7 INNER ITERATIONS.
    ------------------------------------------------

 OUTPUT CONTROL FOR STRESS PERIOD    5   TIME STEP    3
    PRINT BUDGET
    SAVE BUDGET
 UBDSV1 SAVING "         STORAGE" ON UNIT 102 AT TIME STEP  3, STRESS PERIOD   5
 UBDSV2 SAVING "   CONSTANT HEAD" ON UNIT 102 AT TIME STEP  3, STRESS PERIOD   5
 UBDSV1 SAVING "FLOW RIGHT FACE " ON UNIT 102 AT TIME STEP  3, STRESS PERIOD   5
 UBDSV1 SAVING "FLOW FRONT FACE " ON UNIT 102 AT TIME STEP  3, STRESS PERIOD   5

  HEAD DEP BOUNDS   PERIOD    5   STEP     3
 BOUNDARY      1   LAYER   1   ROW    13   COL     1   RATE   -0.296581    
 BOUNDARY      2   LAYER   1   ROW    14   COL     9   RATE    0.285765    



 STREAM LISTING     PERIOD      5   STEP        3

 LAYER ROW COL. STREAM  RCH.  FLOW INTO     FLOW TO   FLOW OUT OF   OVRLND.     DIRECT     STREAM       STREAM     STREAM     STREAM   STREAMBED  STREAMBED
                SEG.NO.  NO.  STRM. RCH.    AQUIFER    STRM. RCH.    RUNOFF     PRECIP       ET          HEAD       DEPTH      WIDTH   CONDCTNC.   GRADIENT

   1    1    1     1     1    2.8000E+01  2.5860E-01   2.7741E+01  0.000E+00  0.000E+00  0.000E+00  1.09427E+03  1.221E+00  1.361E+01  6.126E-02  1.407E+00
   1    2    2     1     2    2.7741E+01  4.0002E-01   2.7341E+01  0.000E+00  0.000E+00  0.000E+00  1.08928E+03  1.217E+00  1.355E+01  9.487E-02  1.406E+00
   1    3    3     1     3    2.7341E+01  3.4070E-01   2.7001E+01  0.000E+00  0.000E+00  0.000E+00  1.08363E+03  1.212E+00  1.348E+01  8.090E-02  1.404E+00
   1    3    4     1     4    2.7001E+01  3.1335E-01   2.6687E+01  0.000E+00  0.000E+00  0.000E+00  1.07861E+03  1.207E+00  1.342E+01  7.448E-02  1.402E+00
   1    4    5     2     1    2.4687E+01  3.2711E-01   2.4360E+01  0.000E+00  0.000E+00  0.000E+00  1.07313E+03  1.194E+00  1.200E+01  7.800E-02  1.398E+00
   1    5    6     2     2    2.4360E+01  2.5111E-01   2.4109E+01  0.000E+00  0.000E+00  0.000E+00  1.06769E+03  1.185E+00  1.200E+01  6.000E-02  1.395E+00
   1    6    6     2     3    2.4109E+01  2.5067E-01   2.3858E+01  0.000E+00  0.000E+00  0.000E+00  1.06297E+03  1.178E+00  1.200E+01  6.000E-02  1.393E+00
   1    7    6     2     4    2.3858E+01  2.5023E-01   2.3608E+01  0.000E+00  0.000E+00  0.000E+00  1.05825E+03  1.170E+00  1.200E+01  6.000E-02  1.390E+00
   1    8    6     2     5    2.3608E+01  2.4978E-01   2.3358E+01  0.000E+00  0.000E+00  0.000E+00  1.05352E+03  1.163E+00  1.200E+01  6.000E-02  1.388E+00
   1    3    5     3     1    2.0000E+00  2.8252E-01   1.7175E+00  0.000E+00  0.000E+00  0.000E+00  1.07555E+03  1.909E+00  9.636E+00  7.227E-02  1.955E+00
   1    3    6     3     2    1.7175E+00  2.4905E-01   1.4684E+00  0.000E+00  0.000E+00  0.000E+00  1.07264E+03  1.727E+00  8.909E+00  6.682E-02  1.864E+00
   1    3    7     3     3    1.4684E+00  1.9718E-01   1.2712E+00  0.000E+00  0.000E+00  0.000E+00  1.06987E+03  1.555E+00  8.218E+00  5.547E-02  1.777E+00
   1    4    8     3     4    1.2712E+00  2.2567E-01   1.0456E+00  0.000E+00  0.000E+00  0.000E+00  1.06682E+03  1.364E+00  7.455E+00  6.709E-02  1.682E+00
   1    5    8     3     5    1.0456E+00  1.5790E-01   8.8768E-01  0.000E+00  0.000E+00  0.000E+00  1.06362E+03  1.164E+00  6.655E+00  4.991E-02  1.582E+00
   1    6    8     3     6    8.8768E-01  5.5980E-02   8.3170E-01  0.000E+00  0.000E+00  0.000E+00  1.06158E+03  1.036E+00  6.145E+00  1.844E-02  1.518E+00
   1    5   10     4     1    1.0000E+01  9.0919E-02   9.9091E+00  0.000E+00  0.000E+00  0.000E+00  1.07836E+03  6.368E-01  1.000E+01  2.500E-02  1.212E+00
   1    5    9     4     2    9.9091E+00  1.8158E-01   9.7275E+00  0.000E+00  0.000E+00  0.000E+00  1.07154E+03  6.315E-01  1.000E+01  5.000E-02  1.211E+00
   1    6    8     4     3    9.7275E+00  1.2689E-01   9.6006E+00  0.000E+00  0.000E+00  0.000E+00  1.06381E+03  6.256E-01  1.000E+01  3.500E-02  1.209E+00
   1    6    8     5     1    1.0432E+01  2.2686E-01   1.0205E+01  0.000E+00  0.000E+00  0.000E+00  1.05868E+03  6.790E-01  1.542E+01  6.166E-02  1.226E+00
   1    7    7     5     2    1.0205E+01  2.7894E-01   9.9265E+00  0.000E+00  0.000E+00  0.000E+00  1.05417E+03  6.732E-01  1.519E+01  7.594E-02  1.224E+00
   1    8    7     5     3    9.9265E+00  1.9221E-01   9.7343E+00  0.000E+00  0.000E+00  0.000E+00  1.04992E+03  6.676E-01  1.497E+01  5.241E-02  1.223E+00
   1    8    6     5     4    9.7343E+00  1.3577E-01   9.5985E+00  0.000E+00  0.000E+00  0.000E+00  1.04691E+03  6.637E-01  1.482E+01  3.706E-02  1.221E+00
   1    9    6     6     1    3.2957E+01  2.6627E-01   3.2691E+01  0.000E+00  0.000E+00  0.000E+00  1.04417E+03  1.438E+00  1.200E+01  6.000E-02  1.479E+00
   1   10    7     6     2    3.2691E+01  2.6584E-01   3.2425E+01  0.000E+00  0.000E+00  0.000E+00  1.03961E+03  1.431E+00  1.200E+01  6.000E-02  1.477E+00
   1   11    7     6     3    3.2425E+01  2.6542E-01   3.2159E+01  0.000E+00  0.000E+00  0.000E+00  1.03506E+03  1.424E+00  1.200E+01  6.000E-02  1.475E+00
   1   12    7     6     4    3.2159E+01  2.6500E-01   3.1894E+01  0.000E+00  0.000E+00  0.000E+00  1.03051E+03  1.417E+00  1.200E+01  6.000E-02  1.472E+00
   1   13    7     6     5    3.1894E+01  4.2858E-03   3.1890E+01  0.000E+00  0.000E+00  0.000E+00  1.02732E+03  1.413E+00  1.200E+01  2.400E-02  5.953E-02
   1   14    9     7     1    1.5000E+02  1.3359E+00   1.4866E+02  0.000E+00  0.000E+00  0.000E+00  1.03987E+03  2.288E+00  5.529E+01  5.593E-01  7.962E-01
   1   13    8     7     2    1.4866E+02  1.8261E+00   1.4684E+02  0.000E+00  0.000E+00  0.000E+00  1.03478E+03  2.279E+00  5.526E+01  6.148E-01  9.901E-01
   1   13    7     7     3    1.4684E+02  1.4220E+00   1.4542E+02  0.000E+00  0.000E+00  0.000E+00  1.02969E+03  2.271E+00  5.522E+01  5.585E-01  8.488E-01
   1   13    6     8     1    1.7731E+02  8.7526E-01   1.7643E+02  0.000E+00  0.000E+00  0.000E+00  1.02487E+03  2.996E+00  4.345E+01  4.427E-01  6.590E-01
   1   13    5     8     2    1.7643E+02  1.0996E-01   1.7632E+02  0.000E+00  0.000E+00  0.000E+00  1.01862E+03  2.993E+00  4.340E+01  4.423E-01  8.287E-02
   1   13    4     8     3    1.7632E+02 -3.1502E+00   1.7947E+02  0.000E+00  0.000E+00  0.000E+00  1.01238E+03  3.003E+00  4.354E+01  4.437E+00 -2.367E-01
   1   13    3     8     4    1.7947E+02 -4.2827E+00   1.8375E+02  0.000E+00  0.000E+00  0.000E+00  1.00615E+03  3.026E+00  4.388E+01  4.472E+00 -3.192E-01
   1   13    2     8     5    1.8375E+02 -3.2427E+00   1.8700E+02  0.000E+00  0.000E+00  0.000E+00  9.99925E+02  3.050E+00  4.422E+01  4.506E+00 -2.399E-01
   1   13    1     8     6    1.8700E+02 -2.3464E+00   1.8934E+02  0.000E+00  0.000E+00  0.000E+00  9.94942E+02  3.067E+00  4.447E+01  2.719E+00 -2.877E-01



 UBDSV3 SAVING "           GW ET" ON UNIT  61 AT TIME STEP  3, STRESS PERIOD   5
 UBDSV3 SAVING "    UZF RECHARGE" ON UNIT  61 AT TIME STEP  3, STRESS PERIOD   5
 UBDSV3 SAVING " SURFACE LEAKAGE" ON UNIT  61 AT TIME STEP  3, STRESS PERIOD   5
 UBDSV3 SAVING "       HORT+DUNN" ON UNIT  61 AT TIME STEP  3, STRESS PERIOD   5
 UBDSV3 SAVING "  STORAGE CHANGE" ON UNIT  61 AT TIME STEP  3, STRESS PERIOD   5


UNSATURATED ZONE PACKAGE VOLUMETRIC BUDGET FOR  TIME STEP     3 STRESS PERIOD    5
  ------------------------------------------------------------------------------



     CUMULATIVE VOLUMES      L**3       RATES FOR THIS TIME STEP      L**3/T
     ------------------                 ------------------------

           IN:                                      IN:
           ---                                      ---
        INFILTRATION =    22745637.0000          INFILTRATION =          60.8475

          OUT:                                     OUT:
          ----                                     ----
              UZF ET =      322051.6166                UZF ET =           1.0473
        UZF RECHARGE =     4375215.4507          UZF RECHARGE =           0.3328

            IN - OUT =    18048369.9327              IN - OUT =          59.4674

          STORAGE:                                 STORAGE:
          --------                                 --------
      STORAGE CHANGE =    18048370.2430        STORAGE CHANGE =          59.4674

 PERCENT DISCREPANCY IS DIFFERENCE BETWEEN IN-OUT MINUS CHANGE IN STORAGE
 DIVIDED BY THE AVERAGE OF IN AND OUT TIMES 100

 PERCENT DISCREPANCY =          -0.00     PERCENT DISCREPANCY =           0.00






 

            AWU WELLS     PERIOD    5   STEP   3
 AWU WELL      1   LAYER   1   ROW     6   COL     4   RATE    -10.0000    
 AWU WELL      2   LAYER   1   ROW     6   COL     5   RATE    -10.0000    
 AWU WELL      3   LAYER   1   ROW     7   COL     4   RATE    -10.0000    
 AWU WELL      4   LAYER   1   ROW     7   COL     5   RATE    -10.0000    
 AWU WELL      5   LAYER   1   ROW     8   COL     4   RATE    -10.0000    
 AWU WELL      6   LAYER   1   ROW     8   COL     5   RATE    -10.0000    
 
 

        GW IRRIGATION     PERIOD    5   STEP   3
 AWU WELL      1   ROW     6   COL     4   RATE     10.0000    
 AWU WELL      2   ROW     6   COL     5   RATE     10.0000    
 AWU WELL      3   ROW     7   COL     4   RATE     10.0000    
 AWU WELL      4   ROW     7   COL     5   RATE     10.0000    
 AWU WELL      5   ROW     8   COL     4   RATE     10.0000    
 AWU WELL      6   ROW     8   COL     5   RATE     10.0000    
 
1
  VOLUMETRIC BUDGET FOR ENTIRE MODEL AT END OF TIME STEP    3, STRESS PERIOD   5
  ------------------------------------------------------------------------------

     CUMULATIVE VOLUMES      L**3       RATES FOR THIS TIME STEP      L**3/T
     ------------------                 ------------------------

           IN:                                      IN:
           ---                                      ---
               AWU WELLS =    15768000.0000                 AWU WELLS =          60.0000
      DIVERSION SEGMENTS =           0.0000        DIVERSION SEGMENTS =           0.0000
           GW IRRIGATION =           0.0000             GW IRRIGATION =           0.0000
           SW IRRIGATION =           0.0000             SW IRRIGATION =           0.0000
        SYSTEM LOSSES GW =           0.0000          SYSTEM LOSSES GW =           0.0000
        SYSTEM LOSSES SW =           0.0000          SYSTEM LOSSES SW =           0.0000

                TOTAL IN =    15768000.0000                  TOTAL IN =          60.0000

          OUT:                                     OUT:
          ----                                     ----
               AWU WELLS =           0.0000                 AWU WELLS =           0.0000
      DIVERSION SEGMENTS =           0.0000        DIVERSION SEGMENTS =           0.0000
           GW IRRIGATION =    15768000.0000             GW IRRIGATION =          60.0000
           SW IRRIGATION =           0.0000             SW IRRIGATION =           0.0000
        SYSTEM LOSSES GW =           0.0000          SYSTEM LOSSES GW =           0.0000
        SYSTEM LOSSES SW =           0.0000          SYSTEM LOSSES SW =           0.0000

               TOTAL OUT =    15768000.0000                 TOTAL OUT =          60.0000

                IN - OUT =           0.0000                  IN - OUT =           0.0000

     PERCENT DISCREPANCY =           0.00         PERCENT DISCREPANCY =           0.00



1
  VOLUMETRIC BUDGET FOR ENTIRE MODEL AT END OF TIME STEP    3, STRESS PERIOD   5
  ------------------------------------------------------------------------------

     CUMULATIVE VOLUMES      L**3       RATES FOR THIS TIME STEP      L**3/T
     ------------------                 ------------------------

           IN:                                      IN:
           ---                                      ---
             STORAGE     =    20475154.0000               STORAGE     =          63.2413
       CONSTANT HEAD     =           0.0000         CONSTANT HEAD     =           0.0000
     HEAD DEP BOUNDS     =     2352715.0000       HEAD DEP BOUNDS     =           0.2858
      STREAM LEAKAGE     =   102835392.0000        STREAM LEAKAGE     =          11.6791
        UZF RECHARGE     =     4375215.0000          UZF RECHARGE     =           0.3328
               GW ET     =           0.0000                 GW ET     =           0.0000
     SURFACE LEAKAGE     =           0.0000       SURFACE LEAKAGE     =           0.0000
           AWU WELLS     =           0.0000             AWU WELLS     =           0.0000

                TOTAL IN =   130038480.0000                  TOTAL IN =          75.5390

          OUT:                                     OUT:
          ----                                     ----
             STORAGE     =    28732222.0000               STORAGE     =           1.7078
       CONSTANT HEAD     =           0.0000         CONSTANT HEAD     =           0.0000
     HEAD DEP BOUNDS     =     2400183.2500       HEAD DEP BOUNDS     =           0.2966
      STREAM LEAKAGE     =    82845072.0000        STREAM LEAKAGE     =          13.0219
        UZF RECHARGE     =           0.0000          UZF RECHARGE     =           0.0000
               GW ET     =      300773.6250                 GW ET     =           0.5128
     SURFACE LEAKAGE     =           0.0000       SURFACE LEAKAGE     =           0.0000
           AWU WELLS     =    15768000.0000             AWU WELLS     =          60.0000

               TOTAL OUT =   130046256.0000                 TOTAL OUT =          75.5391

                IN - OUT =       -7776.0000                  IN - OUT =      -1.5259E-04

     PERCENT DISCREPANCY =          -0.01         PERCENT DISCREPANCY =          -0.00






         TIME SUMMARY AT END OF TIME STEP    3 IN STRESS PERIOD    5
                    SECONDS     MINUTES      HOURS       DAYS        YEARS
                    -----------------------------------------------------------
   TIME STEP LENGTH  87600.      1460.0      24.333      1.0139     2.77588E-03
 STRESS PERIOD TIME 2.62800E+05  4380.0      73.000      3.0417     8.32763E-03
         TOTAL TIME 8.23320E+06 1.37220E+05  2287.0      95.292     0.26089    
1
 
 SOLVING FOR HEAD 
                                                   Max.-Head-Change                         Max.-Flux-Residual
  Residual-Control   Outer-Iter.   Inner-Iter.     Column Row Layer    Maximum-Head-Change  Column Row Layer    Maximum-Flux-Residual          L2-NORM 
          0                 1           2             4    7     1      -0.1878716530E+00       4    7    1        -0.9830166528E+01      0.2320412842E+02
          0                 2           2             4    7     1       0.1827447866E-01       4    7    1         0.9829968226E+00      0.2319948437E+01
          0                 3           2             4    7     1      -0.1244427280E-02       4    7    1        -0.6880999496E-01      0.1623794170E+00
          0                 4           1             4    7     1       0.4951691189E-04       4    7    1         0.2814331832E-02      0.6641540216E-02

    ------------------------------------------------
       NWT REQUIRED            4 OUTER ITERATIONS 
       AND A TOTAL OF          7 INNER ITERATIONS.
    ------------------------------------------------

 OUTPUT CONTROL FOR STRESS PERIOD    5   TIME STEP    4
    PRINT BUDGET
    SAVE BUDGET
 UBDSV1 SAVING "         STORAGE" ON UNIT 102 AT TIME STEP  4, STRESS PERIOD   5
 UBDSV2 SAVING "   CONSTANT HEAD" ON UNIT 102 AT TIME STEP  4, STRESS PERIOD   5
 UBDSV1 SAVING "FLOW RIGHT FACE " ON UNIT 102 AT TIME STEP  4, STRESS PERIOD   5
 UBDSV1 SAVING "FLOW FRONT FACE " ON UNIT 102 AT TIME STEP  4, STRESS PERIOD   5

  HEAD DEP BOUNDS   PERIOD    5   STEP     4
 BOUNDARY      1   LAYER   1   ROW    13   COL     1   RATE   -0.296271    
 BOUNDARY      2   LAYER   1   ROW    14   COL     9   RATE    0.285765    



 STREAM LISTING     PERIOD      5   STEP        4

 LAYER ROW COL. STREAM  RCH.  FLOW INTO     FLOW TO   FLOW OUT OF   OVRLND.     DIRECT     STREAM       STREAM     STREAM     STREAM   STREAMBED  STREAMBED
                SEG.NO.  NO.  STRM. RCH.    AQUIFER    STRM. RCH.    RUNOFF     PRECIP       ET          HEAD       DEPTH      WIDTH   CONDCTNC.   GRADIENT

   1    1    1     1     1    2.8000E+01  2.5860E-01   2.7741E+01  0.000E+00  0.000E+00  0.000E+00  1.09427E+03  1.221E+00  1.361E+01  6.126E-02  1.407E+00
   1    2    2     1     2    2.7741E+01  4.0002E-01   2.7341E+01  0.000E+00  0.000E+00  0.000E+00  1.08928E+03  1.217E+00  1.355E+01  9.487E-02  1.406E+00
   1    3    3     1     3    2.7341E+01  3.4070E-01   2.7001E+01  0.000E+00  0.000E+00  0.000E+00  1.08363E+03  1.212E+00  1.348E+01  8.090E-02  1.404E+00
   1    3    4     1     4    2.7001E+01  3.1335E-01   2.6687E+01  0.000E+00  0.000E+00  0.000E+00  1.07861E+03  1.207E+00  1.342E+01  7.448E-02  1.402E+00
   1    4    5     2     1    2.4687E+01  3.2711E-01   2.4360E+01  0.000E+00  0.000E+00  0.000E+00  1.07313E+03  1.194E+00  1.200E+01  7.800E-02  1.398E+00
   1    5    6     2     2    2.4360E+01  2.5111E-01   2.4109E+01  0.000E+00  0.000E+00  0.000E+00  1.06769E+03  1.185E+00  1.200E+01  6.000E-02  1.395E+00
   1    6    6     2     3    2.4109E+01  2.5067E-01   2.3858E+01  0.000E+00  0.000E+00  0.000E+00  1.06297E+03  1.178E+00  1.200E+01  6.000E-02  1.393E+00
   1    7    6     2     4    2.3858E+01  2.5023E-01   2.3608E+01  0.000E+00  0.000E+00  0.000E+00  1.05825E+03  1.170E+00  1.200E+01  6.000E-02  1.390E+00
   1    8    6     2     5    2.3608E+01  2.4978E-01   2.3358E+01  0.000E+00  0.000E+00  0.000E+00  1.05352E+03  1.163E+00  1.200E+01  6.000E-02  1.388E+00
   1    3    5     3     1    2.0000E+00  2.8252E-01   1.7175E+00  0.000E+00  0.000E+00  0.000E+00  1.07555E+03  1.909E+00  9.636E+00  7.227E-02  1.955E+00
   1    3    6     3     2    1.7175E+00  2.4905E-01   1.4684E+00  0.000E+00  0.000E+00  0.000E+00  1.07264E+03  1.727E+00  8.909E+00  6.682E-02  1.864E+00
   1    3    7     3     3    1.4684E+00  1.9718E-01   1.2712E+00  0.000E+00  0.000E+00  0.000E+00  1.06987E+03  1.555E+00  8.218E+00  5.547E-02  1.777E+00
   1    4    8     3     4    1.2712E+00  2.2567E-01   1.0456E+00  0.000E+00  0.000E+00  0.000E+00  1.06682E+03  1.364E+00  7.455E+00  6.709E-02  1.682E+00
   1    5    8     3     5    1.0456E+00  1.5790E-01   8.8768E-01  0.000E+00  0.000E+00  0.000E+00  1.06362E+03  1.164E+00  6.655E+00  4.991E-02  1.582E+00
   1    6    8     3     6    8.8768E-01  5.5980E-02   8.3170E-01  0.000E+00  0.000E+00  0.000E+00  1.06158E+03  1.036E+00  6.145E+00  1.844E-02  1.518E+00
   1    5   10     4     1    1.0000E+01  9.0919E-02   9.9091E+00  0.000E+00  0.000E+00  0.000E+00  1.07836E+03  6.368E-01  1.000E+01  2.500E-02  1.212E+00
   1    5    9     4     2    9.9091E+00  1.8158E-01   9.7275E+00  0.000E+00  0.000E+00  0.000E+00  1.07154E+03  6.315E-01  1.000E+01  5.000E-02  1.211E+00
   1    6    8     4     3    9.7275E+00  1.2689E-01   9.6006E+00  0.000E+00  0.000E+00  0.000E+00  1.06381E+03  6.256E-01  1.000E+01  3.500E-02  1.209E+00
   1    6    8     5     1    1.0432E+01  2.2686E-01   1.0205E+01  0.000E+00  0.000E+00  0.000E+00  1.05868E+03  6.790E-01  1.542E+01  6.166E-02  1.226E+00
   1    7    7     5     2    1.0205E+01  2.7894E-01   9.9265E+00  0.000E+00  0.000E+00  0.000E+00  1.05417E+03  6.732E-01  1.519E+01  7.594E-02  1.224E+00
   1    8    7     5     3    9.9265E+00  1.9221E-01   9.7343E+00  0.000E+00  0.000E+00  0.000E+00  1.04992E+03  6.676E-01  1.497E+01  5.241E-02  1.223E+00
   1    8    6     5     4    9.7343E+00  1.3577E-01   9.5985E+00  0.000E+00  0.000E+00  0.000E+00  1.04691E+03  6.637E-01  1.482E+01  3.706E-02  1.221E+00
   1    9    6     6     1    3.2957E+01  2.6627E-01   3.2691E+01  0.000E+00  0.000E+00  0.000E+00  1.04417E+03  1.438E+00  1.200E+01  6.000E-02  1.479E+00
   1   10    7     6     2    3.2691E+01  2.6584E-01   3.2425E+01  0.000E+00  0.000E+00  0.000E+00  1.03961E+03  1.431E+00  1.200E+01  6.000E-02  1.477E+00
   1   11    7     6     3    3.2425E+01  2.6542E-01   3.2159E+01  0.000E+00  0.000E+00  0.000E+00  1.03506E+03  1.424E+00  1.200E+01  6.000E-02  1.475E+00
   1   12    7     6     4    3.2159E+01  2.6500E-01   3.1894E+01  0.000E+00  0.000E+00  0.000E+00  1.03051E+03  1.417E+00  1.200E+01  6.000E-02  1.472E+00
   1   13    7     6     5    3.1894E+01  4.2784E-03   3.1890E+01  0.000E+00  0.000E+00  0.000E+00  1.02732E+03  1.413E+00  1.200E+01  2.400E-02  5.942E-02
   1   14    9     7     1    1.5000E+02  1.3359E+00   1.4866E+02  0.000E+00  0.000E+00  0.000E+00  1.03987E+03  2.288E+00  5.529E+01  5.593E-01  7.962E-01
   1   13    8     7     2    1.4866E+02  1.8258E+00   1.4684E+02  0.000E+00  0.000E+00  0.000E+00  1.03478E+03  2.279E+00  5.526E+01  6.148E-01  9.900E-01
   1   13    7     7     3    1.4684E+02  1.4219E+00   1.4542E+02  0.000E+00  0.000E+00  0.000E+00  1.02969E+03  2.271E+00  5.522E+01  5.585E-01  8.487E-01
   1   13    6     8     1    1.7731E+02  8.7614E-01   1.7643E+02  0.000E+00  0.000E+00  0.000E+00  1.02487E+03  2.996E+00  4.345E+01  4.427E-01  6.596E-01
   1   13    5     8     2    1.7643E+02  1.1101E-01   1.7632E+02  0.000E+00  0.000E+00  0.000E+00  1.01862E+03  2.993E+00  4.340E+01  4.423E-01  8.367E-02
   1   13    4     8     3    1.7632E+02 -3.0959E+00   1.7942E+02  0.000E+00  0.000E+00  0.000E+00  1.01238E+03  3.003E+00  4.354E+01  4.437E+00 -2.326E-01
   1   13    3     8     4    1.7942E+02 -4.2316E+00   1.8365E+02  0.000E+00  0.000E+00  0.000E+00  1.00615E+03  3.026E+00  4.387E+01  4.471E+00 -3.155E-01
   1   13    2     8     5    1.8365E+02 -3.1906E+00   1.8684E+02  0.000E+00  0.000E+00  0.000E+00  9.99924E+02  3.049E+00  4.421E+01  4.505E+00 -2.361E-01
   1   13    1     8     6    1.8684E+02 -2.3262E+00   1.8916E+02  0.000E+00  0.000E+00  0.000E+00  9.94941E+02  3.066E+00  4.445E+01  2.718E+00 -2.853E-01



 UBDSV3 SAVING "           GW ET" ON UNIT  61 AT TIME STEP  4, STRESS PERIOD   5
 UBDSV3 SAVING "    UZF RECHARGE" ON UNIT  61 AT TIME STEP  4, STRESS PERIOD   5
 UBDSV3 SAVING " SURFACE LEAKAGE" ON UNIT  61 AT TIME STEP  4, STRESS PERIOD   5
 UBDSV3 SAVING "       HORT+DUNN" ON UNIT  61 AT TIME STEP  4, STRESS PERIOD   5
 UBDSV3 SAVING "  STORAGE CHANGE" ON UNIT  61 AT TIME STEP  4, STRESS PERIOD   5


UNSATURATED ZONE PACKAGE VOLUMETRIC BUDGET FOR  TIME STEP     4 STRESS PERIOD    5
  ------------------------------------------------------------------------------



     CUMULATIVE VOLUMES      L**3       RATES FOR THIS TIME STEP      L**3/T
     ------------------                 ------------------------

           IN:                                      IN:
           ---                                      ---
        INFILTRATION =    28075878.0000          INFILTRATION =          60.8475

          OUT:                                     OUT:
          ----                                     ----
              UZF ET =      420702.0462                UZF ET =           1.1261
        UZF RECHARGE =     4403395.3955          UZF RECHARGE =           0.3217

            IN - OUT =    23251780.5583              IN - OUT =          59.3997

          STORAGE:                                 STORAGE:
          --------                                 --------
      STORAGE CHANGE =    23251780.9764        STORAGE CHANGE =          59.3997

 PERCENT DISCREPANCY IS DIFFERENCE BETWEEN IN-OUT MINUS CHANGE IN STORAGE
 DIVIDED BY THE AVERAGE OF IN AND OUT TIMES 100

 PERCENT DISCREPANCY =           0.00     PERCENT DISCREPANCY =           0.00






 

            AWU WELLS     PERIOD    5   STEP   4
 AWU WELL      1   LAYER   1   ROW     6   COL     4   RATE    -10.0000    
 AWU WELL      2   LAYER   1   ROW     6   COL     5   RATE    -10.0000    
 AWU WELL      3   LAYER   1   ROW     7   COL     4   RATE    -10.0000    
 AWU WELL      4   LAYER   1   ROW     7   COL     5   RATE    -10.0000    
 AWU WELL      5   LAYER   1   ROW     8   COL     4   RATE    -10.0000    
 AWU WELL      6   LAYER   1   ROW     8   COL     5   RATE    -10.0000    
 
 

        GW IRRIGATION     PERIOD    5   STEP   4
 AWU WELL      1   ROW     6   COL     4   RATE     10.0000    
 AWU WELL      2   ROW     6   COL     5   RATE     10.0000    
 AWU WELL      3   ROW     7   COL     4   RATE     10.0000    
 AWU WELL      4   ROW     7   COL     5   RATE     10.0000    
 AWU WELL      5   ROW     8   COL     4   RATE     10.0000    
 AWU WELL      6   ROW     8   COL     5   RATE     10.0000    
 
1
  VOLUMETRIC BUDGET FOR ENTIRE MODEL AT END OF TIME STEP    4, STRESS PERIOD   5
  ------------------------------------------------------------------------------

     CUMULATIVE VOLUMES      L**3       RATES FOR THIS TIME STEP      L**3/T
     ------------------                 ------------------------

           IN:                                      IN:
           ---                                      ---
               AWU WELLS =    21024000.0000                 AWU WELLS =          60.0000
      DIVERSION SEGMENTS =           0.0000        DIVERSION SEGMENTS =           0.0000
           GW IRRIGATION =           0.0000             GW IRRIGATION =           0.0000
           SW IRRIGATION =           0.0000             SW IRRIGATION =           0.0000
        SYSTEM LOSSES GW =           0.0000          SYSTEM LOSSES GW =           0.0000
        SYSTEM LOSSES SW =           0.0000          SYSTEM LOSSES SW =           0.0000

                TOTAL IN =    21024000.0000                  TOTAL IN =          60.0000

          OUT:                                     OUT:
          ----                                     ----
               AWU WELLS =           0.0000                 AWU WELLS =           0.0000
      DIVERSION SEGMENTS =           0.0000        DIVERSION SEGMENTS =           0.0000
           GW IRRIGATION =    21024000.0000             GW IRRIGATION =          60.0000
           SW IRRIGATION =           0.0000             SW IRRIGATION =           0.0000
        SYSTEM LOSSES GW =           0.0000          SYSTEM LOSSES GW =           0.0000
        SYSTEM LOSSES SW =           0.0000          SYSTEM LOSSES SW =           0.0000

               TOTAL OUT =    21024000.0000                 TOTAL OUT =          60.0000

                IN - OUT =           0.0000                  IN - OUT =           0.0000

     PERCENT DISCREPANCY =           0.00         PERCENT DISCREPANCY =           0.00



1
  VOLUMETRIC BUDGET FOR ENTIRE MODEL AT END OF TIME STEP    4, STRESS PERIOD   5
  ------------------------------------------------------------------------------

     CUMULATIVE VOLUMES      L**3       RATES FOR THIS TIME STEP      L**3/T
     ------------------                 ------------------------

           IN:                                      IN:
           ---                                      ---
             STORAGE     =    25991702.0000               STORAGE     =          62.9743
       CONSTANT HEAD     =           0.0000         CONSTANT HEAD     =           0.0000
     HEAD DEP BOUNDS     =     2377748.0000       HEAD DEP BOUNDS     =           0.2858
      STREAM LEAKAGE     =   103858616.0000        STREAM LEAKAGE     =          11.6806
        UZF RECHARGE     =     4403395.0000          UZF RECHARGE     =           0.3217
               GW ET     =           0.0000                 GW ET     =           0.0000
     SURFACE LEAKAGE     =           0.0000       SURFACE LEAKAGE     =           0.0000
           AWU WELLS     =           0.0000             AWU WELLS     =           0.0000

                TOTAL IN =   136631456.0000                  TOTAL IN =          75.2624

          OUT:                                     OUT:
          ----                                     ----
             STORAGE     =    28873316.0000               STORAGE     =           1.6107
       CONSTANT HEAD     =           0.0000         CONSTANT HEAD     =           0.0000
     HEAD DEP BOUNDS     =     2426136.5000       HEAD DEP BOUNDS     =           0.2963
      STREAM LEAKAGE     =    83970224.0000        STREAM LEAKAGE     =          12.8442
        UZF RECHARGE     =           0.0000          UZF RECHARGE     =           0.0000
               GW ET     =      345569.8750                 GW ET     =           0.5114
     SURFACE LEAKAGE     =           0.0000       SURFACE LEAKAGE     =           0.0000
           AWU WELLS     =    21024000.0000             AWU WELLS     =          60.0000

               TOTAL OUT =   136639248.0000                 TOTAL OUT =          75.2625

                IN - OUT =       -7792.0000                  IN - OUT =      -1.6022E-04

     PERCENT DISCREPANCY =          -0.01         PERCENT DISCREPANCY =          -0.00






         TIME SUMMARY AT END OF TIME STEP    4 IN STRESS PERIOD    5
                    SECONDS     MINUTES      HOURS       DAYS        YEARS
                    -----------------------------------------------------------
   TIME STEP LENGTH  87600.      1460.0      24.333      1.0139     2.77588E-03
 STRESS PERIOD TIME 3.50400E+05  5840.0      97.333      4.0556     1.11035E-02
         TOTAL TIME 8.32080E+06 1.38680E+05  2311.3      96.306     0.26367    
1
 
 SOLVING FOR HEAD 
                                                   Max.-Head-Change                         Max.-Flux-Residual
  Residual-Control   Outer-Iter.   Inner-Iter.     Column Row Layer    Maximum-Head-Change  Column Row Layer    Maximum-Flux-Residual          L2-NORM 
          0                 1           2             4    7     1      -0.1866352826E+00       4    7    1        -0.9769190167E+01      0.2280927432E+02
          0                 2           2             4    7     1       0.1815418904E-01       4    7    1         0.9768974875E+00      0.2280503944E+01
          0                 3           2             4    7     1      -0.1236236245E-02       4    7    1        -0.6838305739E-01      0.1596215049E+00
          0                 4           1             4    7     1       0.4919098127E-04       4    7    1         0.2796869994E-02      0.6528860747E-02

    ------------------------------------------------
       NWT REQUIRED            4 OUTER ITERATIONS 
       AND A TOTAL OF          7 INNER ITERATIONS.
    ------------------------------------------------

 NO OUTPUT CONTROL FOR STRESS PERIOD    5   TIME STEP    5
 
 SOLVING FOR HEAD 
                                                   Max.-Head-Change                         Max.-Flux-Residual
  Residual-Control   Outer-Iter.   Inner-Iter.     Column Row Layer    Maximum-Head-Change  Column Row Layer    Maximum-Flux-Residual          L2-NORM 
          0                 1           2             4    7     1      -0.1853408652E+00       4    7    1        -0.9704866560E+01      0.2243353489E+02
          0                 2           2             4    7     1       0.1802825598E-01       4    7    1         0.9704636291E+00      0.2242965246E+01
          0                 3           2             4    7     1      -0.1227660885E-02       4    7    1        -0.6793270127E-01      0.1569958774E+00
          0                 4           1             4    7     1       0.4884975849E-04       4    7    1         0.2778450343E-02      0.6421548745E-02

    ------------------------------------------------
       NWT REQUIRED            4 OUTER ITERATIONS 
       AND A TOTAL OF          7 INNER ITERATIONS.
    ------------------------------------------------

 OUTPUT CONTROL FOR STRESS PERIOD    5   TIME STEP    6
    PRINT BUDGET
    SAVE BUDGET
 UBDSV1 SAVING "         STORAGE" ON UNIT 102 AT TIME STEP  6, STRESS PERIOD   5
 UBDSV2 SAVING "   CONSTANT HEAD" ON UNIT 102 AT TIME STEP  6, STRESS PERIOD   5
 UBDSV1 SAVING "FLOW RIGHT FACE " ON UNIT 102 AT TIME STEP  6, STRESS PERIOD   5
 UBDSV1 SAVING "FLOW FRONT FACE " ON UNIT 102 AT TIME STEP  6, STRESS PERIOD   5

  HEAD DEP BOUNDS   PERIOD    5   STEP     6
 BOUNDARY      1   LAYER   1   ROW    13   COL     1   RATE   -0.295688    
 BOUNDARY      2   LAYER   1   ROW    14   COL     9   RATE    0.285764    



 STREAM LISTING     PERIOD      5   STEP        6

 LAYER ROW COL. STREAM  RCH.  FLOW INTO     FLOW TO   FLOW OUT OF   OVRLND.     DIRECT     STREAM       STREAM     STREAM     STREAM   STREAMBED  STREAMBED
                SEG.NO.  NO.  STRM. RCH.    AQUIFER    STRM. RCH.    RUNOFF     PRECIP       ET          HEAD       DEPTH      WIDTH   CONDCTNC.   GRADIENT

   1    1    1     1     1    2.8000E+01  2.5860E-01   2.7741E+01  0.000E+00  0.000E+00  0.000E+00  1.09427E+03  1.221E+00  1.361E+01  6.126E-02  1.407E+00
   1    2    2     1     2    2.7741E+01  4.0002E-01   2.7341E+01  0.000E+00  0.000E+00  0.000E+00  1.08928E+03  1.217E+00  1.355E+01  9.487E-02  1.406E+00
   1    3    3     1     3    2.7341E+01  3.4070E-01   2.7001E+01  0.000E+00  0.000E+00  0.000E+00  1.08363E+03  1.212E+00  1.348E+01  8.090E-02  1.404E+00
   1    3    4     1     4    2.7001E+01  3.1335E-01   2.6687E+01  0.000E+00  0.000E+00  0.000E+00  1.07861E+03  1.207E+00  1.342E+01  7.448E-02  1.402E+00
   1    4    5     2     1    2.4687E+01  3.2711E-01   2.4360E+01  0.000E+00  0.000E+00  0.000E+00  1.07313E+03  1.194E+00  1.200E+01  7.800E-02  1.398E+00
   1    5    6     2     2    2.4360E+01  2.5111E-01   2.4109E+01  0.000E+00  0.000E+00  0.000E+00  1.06769E+03  1.185E+00  1.200E+01  6.000E-02  1.395E+00
   1    6    6     2     3    2.4109E+01  2.5067E-01   2.3858E+01  0.000E+00  0.000E+00  0.000E+00  1.06297E+03  1.178E+00  1.200E+01  6.000E-02  1.393E+00
   1    7    6     2     4    2.3858E+01  2.5023E-01   2.3608E+01  0.000E+00  0.000E+00  0.000E+00  1.05825E+03  1.170E+00  1.200E+01  6.000E-02  1.390E+00
   1    8    6     2     5    2.3608E+01  2.4978E-01   2.3358E+01  0.000E+00  0.000E+00  0.000E+00  1.05352E+03  1.163E+00  1.200E+01  6.000E-02  1.388E+00
   1    3    5     3     1    2.0000E+00  2.8252E-01   1.7175E+00  0.000E+00  0.000E+00  0.000E+00  1.07555E+03  1.909E+00  9.636E+00  7.227E-02  1.955E+00
   1    3    6     3     2    1.7175E+00  2.4905E-01   1.4684E+00  0.000E+00  0.000E+00  0.000E+00  1.07264E+03  1.727E+00  8.909E+00  6.682E-02  1.864E+00
   1    3    7     3     3    1.4684E+00  1.9718E-01   1.2712E+00  0.000E+00  0.000E+00  0.000E+00  1.06987E+03  1.555E+00  8.218E+00  5.547E-02  1.777E+00
   1    4    8     3     4    1.2712E+00  2.2567E-01   1.0456E+00  0.000E+00  0.000E+00  0.000E+00  1.06682E+03  1.364E+00  7.455E+00  6.709E-02  1.682E+00
   1    5    8     3     5    1.0456E+00  1.5790E-01   8.8768E-01  0.000E+00  0.000E+00  0.000E+00  1.06362E+03  1.164E+00  6.655E+00  4.991E-02  1.582E+00
   1    6    8     3     6    8.8768E-01  5.5980E-02   8.3170E-01  0.000E+00  0.000E+00  0.000E+00  1.06158E+03  1.036E+00  6.145E+00  1.844E-02  1.518E+00
   1    5   10     4     1    1.0000E+01  9.0919E-02   9.9091E+00  0.000E+00  0.000E+00  0.000E+00  1.07836E+03  6.368E-01  1.000E+01  2.500E-02  1.212E+00
   1    5    9     4     2    9.9091E+00  1.8158E-01   9.7275E+00  0.000E+00  0.000E+00  0.000E+00  1.07154E+03  6.315E-01  1.000E+01  5.000E-02  1.211E+00
   1    6    8     4     3    9.7275E+00  1.2689E-01   9.6006E+00  0.000E+00  0.000E+00  0.000E+00  1.06381E+03  6.256E-01  1.000E+01  3.500E-02  1.209E+00
   1    6    8     5     1    1.0432E+01  2.2686E-01   1.0205E+01  0.000E+00  0.000E+00  0.000E+00  1.05868E+03  6.790E-01  1.542E+01  6.166E-02  1.226E+00
   1    7    7     5     2    1.0205E+01  2.7894E-01   9.9265E+00  0.000E+00  0.000E+00  0.000E+00  1.05417E+03  6.732E-01  1.519E+01  7.594E-02  1.224E+00
   1    8    7     5     3    9.9265E+00  1.9221E-01   9.7343E+00  0.000E+00  0.000E+00  0.000E+00  1.04992E+03  6.676E-01  1.497E+01  5.241E-02  1.223E+00
   1    8    6     5     4    9.7343E+00  1.3577E-01   9.5985E+00  0.000E+00  0.000E+00  0.000E+00  1.04691E+03  6.637E-01  1.482E+01  3.706E-02  1.221E+00
   1    9    6     6     1    3.2957E+01  2.6627E-01   3.2691E+01  0.000E+00  0.000E+00  0.000E+00  1.04417E+03  1.438E+00  1.200E+01  6.000E-02  1.479E+00
   1   10    7     6     2    3.2691E+01  2.6584E-01   3.2425E+01  0.000E+00  0.000E+00  0.000E+00  1.03961E+03  1.431E+00  1.200E+01  6.000E-02  1.477E+00
   1   11    7     6     3    3.2425E+01  2.6542E-01   3.2159E+01  0.000E+00  0.000E+00  0.000E+00  1.03506E+03  1.424E+00  1.200E+01  6.000E-02  1.475E+00
   1   12    7     6     4    3.2159E+01  2.6500E-01   3.1894E+01  0.000E+00  0.000E+00  0.000E+00  1.03051E+03  1.417E+00  1.200E+01  6.000E-02  1.472E+00
   1   13    7     6     5    3.1894E+01  4.2653E-03   3.1890E+01  0.000E+00  0.000E+00  0.000E+00  1.02732E+03  1.413E+00  1.200E+01  2.400E-02  5.924E-02
   1   14    9     7     1    1.5000E+02  1.3359E+00   1.4866E+02  0.000E+00  0.000E+00  0.000E+00  1.03987E+03  2.288E+00  5.529E+01  5.593E-01  7.962E-01
   1   13    8     7     2    1.4866E+02  1.8254E+00   1.4684E+02  0.000E+00  0.000E+00  0.000E+00  1.03478E+03  2.279E+00  5.526E+01  6.148E-01  9.897E-01
   1   13    7     7     3    1.4684E+02  1.4216E+00   1.4542E+02  0.000E+00  0.000E+00  0.000E+00  1.02969E+03  2.271E+00  5.522E+01  5.585E-01  8.485E-01
   1   13    6     8     1    1.7731E+02  8.7781E-01   1.7643E+02  0.000E+00  0.000E+00  0.000E+00  1.02487E+03  2.996E+00  4.345E+01  4.427E-01  6.609E-01
   1   13    5     8     2    1.7643E+02  1.1314E-01   1.7632E+02  0.000E+00  0.000E+00  0.000E+00  1.01862E+03  2.993E+00  4.340E+01  4.423E-01  8.527E-02
   1   13    4     8     3    1.7632E+02 -3.0020E+00   1.7932E+02  0.000E+00  0.000E+00  0.000E+00  1.01238E+03  3.002E+00  4.353E+01  4.436E+00 -2.256E-01
   1   13    3     8     4    1.7932E+02 -4.1418E+00   1.8346E+02  0.000E+00  0.000E+00  0.000E+00  1.00615E+03  3.025E+00  4.386E+01  4.470E+00 -3.089E-01
   1   13    2     8     5    1.8346E+02 -3.0976E+00   1.8656E+02  0.000E+00  0.000E+00  0.000E+00  9.99922E+02  3.047E+00  4.419E+01  4.503E+00 -2.293E-01
   1   13    1     8     6    1.8656E+02 -2.2880E+00   1.8885E+02  0.000E+00  0.000E+00  0.000E+00  9.94939E+02  3.064E+00  4.443E+01  2.716E+00 -2.808E-01



 UBDSV3 SAVING "           GW ET" ON UNIT  61 AT TIME STEP  6, STRESS PERIOD   5
 UBDSV3 SAVING "    UZF RECHARGE" ON UNIT  61 AT TIME STEP  6, STRESS PERIOD   5
 UBDSV3 SAVING " SURFACE LEAKAGE" ON UNIT  61 AT TIME STEP  6, STRESS PERIOD   5
 UBDSV3 SAVING "       HORT+DUNN" ON UNIT  61 AT TIME STEP  6, STRESS PERIOD   5
 UBDSV3 SAVING "  STORAGE CHANGE" ON UNIT  61 AT TIME STEP  6, STRESS PERIOD   5


UNSATURATED ZONE PACKAGE VOLUMETRIC BUDGET FOR  TIME STEP     6 STRESS PERIOD    5
  ------------------------------------------------------------------------------



     CUMULATIVE VOLUMES      L**3       RATES FOR THIS TIME STEP      L**3/T
     ------------------                 ------------------------

           IN:                                      IN:
           ---                                      ---
        INFILTRATION =    38736360.0000          INFILTRATION =          60.8475

          OUT:                                     OUT:
          ----                                     ----
              UZF ET =      638674.8324                UZF ET =           1.2834
        UZF RECHARGE =     4456757.3993          UZF RECHARGE =           0.2993

            IN - OUT =    33640927.7683              IN - OUT =          59.2647

          STORAGE:                                 STORAGE:
          --------                                 --------
      STORAGE CHANGE =    33640928.3992        STORAGE CHANGE =          59.2647

 PERCENT DISCREPANCY IS DIFFERENCE BETWEEN IN-OUT MINUS CHANGE IN STORAGE
 DIVIDED BY THE AVERAGE OF IN AND OUT TIMES 100

 PERCENT DISCREPANCY =           0.00     PERCENT DISCREPANCY =           0.00






 

            AWU WELLS     PERIOD    5   STEP   6
 AWU WELL      1   LAYER   1   ROW     6   COL     4   RATE    -10.0000    
 AWU WELL      2   LAYER   1   ROW     6   COL     5   RATE    -10.0000    
 AWU WELL      3   LAYER   1   ROW     7   COL     4   RATE    -10.0000    
 AWU WELL      4   LAYER   1   ROW     7   COL     5   RATE    -10.0000    
 AWU WELL      5   LAYER   1   ROW     8   COL     4   RATE    -10.0000    
 AWU WELL      6   LAYER   1   ROW     8   COL     5   RATE    -10.0000    
 
 

        GW IRRIGATION     PERIOD    5   STEP   6
 AWU WELL      1   ROW     6   COL     4   RATE     10.0000    
 AWU WELL      2   ROW     6   COL     5   RATE     10.0000    
 AWU WELL      3   ROW     7   COL     4   RATE     10.0000    
 AWU WELL      4   ROW     7   COL     5   RATE     10.0000    
 AWU WELL      5   ROW     8   COL     4   RATE     10.0000    
 AWU WELL      6   ROW     8   COL     5   RATE     10.0000    
 
1
  VOLUMETRIC BUDGET FOR ENTIRE MODEL AT END OF TIME STEP    6, STRESS PERIOD   5
  ------------------------------------------------------------------------------

     CUMULATIVE VOLUMES      L**3       RATES FOR THIS TIME STEP      L**3/T
     ------------------                 ------------------------

           IN:                                      IN:
           ---                                      ---
               AWU WELLS =    31536000.0000                 AWU WELLS =          60.0000
      DIVERSION SEGMENTS =           0.0000        DIVERSION SEGMENTS =           0.0000
           GW IRRIGATION =           0.0000             GW IRRIGATION =           0.0000
           SW IRRIGATION =           0.0000             SW IRRIGATION =           0.0000
        SYSTEM LOSSES GW =           0.0000          SYSTEM LOSSES GW =           0.0000
        SYSTEM LOSSES SW =           0.0000          SYSTEM LOSSES SW =           0.0000

                TOTAL IN =    31536000.0000                  TOTAL IN =          60.0000

          OUT:                                     OUT:
          ----                                     ----
               AWU WELLS =           0.0000                 AWU WELLS =           0.0000
      DIVERSION SEGMENTS =           0.0000        DIVERSION SEGMENTS =           0.0000
           GW IRRIGATION =    31536000.0000             GW IRRIGATION =          60.0000
           SW IRRIGATION =           0.0000             SW IRRIGATION =           0.0000
        SYSTEM LOSSES GW =           0.0000          SYSTEM LOSSES GW =           0.0000
        SYSTEM LOSSES SW =           0.0000          SYSTEM LOSSES SW =           0.0000

               TOTAL OUT =    31536000.0000                 TOTAL OUT =          60.0000

                IN - OUT =           0.0000                  IN - OUT =           0.0000

     PERCENT DISCREPANCY =           0.00         PERCENT DISCREPANCY =           0.00



1
  VOLUMETRIC BUDGET FOR ENTIRE MODEL AT END OF TIME STEP    6, STRESS PERIOD   5
  ------------------------------------------------------------------------------

     CUMULATIVE VOLUMES      L**3       RATES FOR THIS TIME STEP      L**3/T
     ------------------                 ------------------------

           IN:                                      IN:
           ---                                      ---
             STORAGE     =    36965236.0000               STORAGE     =          62.5328
       CONSTANT HEAD     =           0.0000         CONSTANT HEAD     =           0.0000
     HEAD DEP BOUNDS     =     2427814.0000       HEAD DEP BOUNDS     =           0.2858
      STREAM LEAKAGE     =   105905464.0000        STREAM LEAKAGE     =          11.6837
        UZF RECHARGE     =     4456757.0000          UZF RECHARGE     =           0.2993
               GW ET     =           0.0000                 GW ET     =           0.0000
     SURFACE LEAKAGE     =           0.0000       SURFACE LEAKAGE     =           0.0000
           AWU WELLS     =           0.0000             AWU WELLS     =           0.0000

                TOTAL IN =   149755264.0000                  TOTAL IN =          74.8016

          OUT:                                     OUT:
          ----                                     ----
             STORAGE     =    29135682.0000               STORAGE     =           1.4677
       CONSTANT HEAD     =           0.0000         CONSTANT HEAD     =           0.0000
     HEAD DEP BOUNDS     =     2477966.0000       HEAD DEP BOUNDS     =           0.2957
      STREAM LEAKAGE     =    86178616.0000        STREAM LEAKAGE     =          12.5295
        UZF RECHARGE     =           0.0000          UZF RECHARGE     =           0.0000
               GW ET     =      434816.2500                 GW ET     =           0.5088
     SURFACE LEAKAGE     =           0.0000       SURFACE LEAKAGE     =           0.0000
           AWU WELLS     =    31536000.0000             AWU WELLS     =          60.0000

               TOTAL OUT =   149763072.0000                 TOTAL OUT =          74.8017

                IN - OUT =       -7808.0000                  IN - OUT =      -1.6785E-04

     PERCENT DISCREPANCY =          -0.01         PERCENT DISCREPANCY =          -0.00






         TIME SUMMARY AT END OF TIME STEP    6 IN STRESS PERIOD    5
                    SECONDS     MINUTES      HOURS       DAYS        YEARS
                    -----------------------------------------------------------
   TIME STEP LENGTH  87600.      1460.0      24.333      1.0139     2.77588E-03
 STRESS PERIOD TIME 5.25600E+05  8760.0      146.00      6.0833     1.66553E-02
         TOTAL TIME 8.49600E+06 1.41600E+05  2360.0      98.333     0.26922    
1
 
 SOLVING FOR HEAD 
                                                   Max.-Head-Change                         Max.-Flux-Residual
  Residual-Control   Outer-Iter.   Inner-Iter.     Column Row Layer    Maximum-Head-Change  Column Row Layer    Maximum-Flux-Residual          L2-NORM 
          0                 1           2             4    7     1      -0.1839952769E+00       4    7    1        -0.9637575407E+01      0.2207549333E+02
          0                 2           2             4    7     1       0.1789734813E-01       4    7    1         0.9637332013E+00      0.2207190498E+01
          0                 3           2             4    7     1      -0.1218746722E-02       4    7    1        -0.6746158353E-01      0.1544936850E+00
          0                 4           1             4    7     1       0.4849505542E-04       4    7    1         0.2759181550E-02      0.6319483710E-02

    ------------------------------------------------
       NWT REQUIRED            4 OUTER ITERATIONS 
       AND A TOTAL OF          7 INNER ITERATIONS.
    ------------------------------------------------

 OUTPUT CONTROL FOR STRESS PERIOD    5   TIME STEP    7
    PRINT BUDGET
    SAVE BUDGET
 UBDSV1 SAVING "         STORAGE" ON UNIT 102 AT TIME STEP  7, STRESS PERIOD   5
 UBDSV2 SAVING "   CONSTANT HEAD" ON UNIT 102 AT TIME STEP  7, STRESS PERIOD   5
 UBDSV1 SAVING "FLOW RIGHT FACE " ON UNIT 102 AT TIME STEP  7, STRESS PERIOD   5
 UBDSV1 SAVING "FLOW FRONT FACE " ON UNIT 102 AT TIME STEP  7, STRESS PERIOD   5

  HEAD DEP BOUNDS   PERIOD    5   STEP     7
 BOUNDARY      1   LAYER   1   ROW    13   COL     1   RATE   -0.295414    
 BOUNDARY      2   LAYER   1   ROW    14   COL     9   RATE    0.285764    



 STREAM LISTING     PERIOD      5   STEP        7

 LAYER ROW COL. STREAM  RCH.  FLOW INTO     FLOW TO   FLOW OUT OF   OVRLND.     DIRECT     STREAM       STREAM     STREAM     STREAM   STREAMBED  STREAMBED
                SEG.NO.  NO.  STRM. RCH.    AQUIFER    STRM. RCH.    RUNOFF     PRECIP       ET          HEAD       DEPTH      WIDTH   CONDCTNC.   GRADIENT

   1    1    1     1     1    2.8000E+01  2.5860E-01   2.7741E+01  0.000E+00  0.000E+00  0.000E+00  1.09427E+03  1.221E+00  1.361E+01  6.126E-02  1.407E+00
   1    2    2     1     2    2.7741E+01  4.0002E-01   2.7341E+01  0.000E+00  0.000E+00  0.000E+00  1.08928E+03  1.217E+00  1.355E+01  9.487E-02  1.406E+00
   1    3    3     1     3    2.7341E+01  3.4070E-01   2.7001E+01  0.000E+00  0.000E+00  0.000E+00  1.08363E+03  1.212E+00  1.348E+01  8.090E-02  1.404E+00
   1    3    4     1     4    2.7001E+01  3.1335E-01   2.6687E+01  0.000E+00  0.000E+00  0.000E+00  1.07861E+03  1.207E+00  1.342E+01  7.448E-02  1.402E+00
   1    4    5     2     1    2.4687E+01  3.2711E-01   2.4360E+01  0.000E+00  0.000E+00  0.000E+00  1.07313E+03  1.194E+00  1.200E+01  7.800E-02  1.398E+00
   1    5    6     2     2    2.4360E+01  2.5111E-01   2.4109E+01  0.000E+00  0.000E+00  0.000E+00  1.06769E+03  1.185E+00  1.200E+01  6.000E-02  1.395E+00
   1    6    6     2     3    2.4109E+01  2.5067E-01   2.3858E+01  0.000E+00  0.000E+00  0.000E+00  1.06297E+03  1.178E+00  1.200E+01  6.000E-02  1.393E+00
   1    7    6     2     4    2.3858E+01  2.5023E-01   2.3608E+01  0.000E+00  0.000E+00  0.000E+00  1.05825E+03  1.170E+00  1.200E+01  6.000E-02  1.390E+00
   1    8    6     2     5    2.3608E+01  2.4978E-01   2.3358E+01  0.000E+00  0.000E+00  0.000E+00  1.05352E+03  1.163E+00  1.200E+01  6.000E-02  1.388E+00
   1    3    5     3     1    2.0000E+00  2.8252E-01   1.7175E+00  0.000E+00  0.000E+00  0.000E+00  1.07555E+03  1.909E+00  9.636E+00  7.227E-02  1.955E+00
   1    3    6     3     2    1.7175E+00  2.4905E-01   1.4684E+00  0.000E+00  0.000E+00  0.000E+00  1.07264E+03  1.727E+00  8.909E+00  6.682E-02  1.864E+00
   1    3    7     3     3    1.4684E+00  1.9718E-01   1.2712E+00  0.000E+00  0.000E+00  0.000E+00  1.06987E+03  1.555E+00  8.218E+00  5.547E-02  1.777E+00
   1    4    8     3     4    1.2712E+00  2.2567E-01   1.0456E+00  0.000E+00  0.000E+00  0.000E+00  1.06682E+03  1.364E+00  7.455E+00  6.709E-02  1.682E+00
   1    5    8     3     5    1.0456E+00  1.5790E-01   8.8768E-01  0.000E+00  0.000E+00  0.000E+00  1.06362E+03  1.164E+00  6.655E+00  4.991E-02  1.582E+00
   1    6    8     3     6    8.8768E-01  5.5980E-02   8.3170E-01  0.000E+00  0.000E+00  0.000E+00  1.06158E+03  1.036E+00  6.145E+00  1.844E-02  1.518E+00
   1    5   10     4     1    1.0000E+01  9.0919E-02   9.9091E+00  0.000E+00  0.000E+00  0.000E+00  1.07836E+03  6.368E-01  1.000E+01  2.500E-02  1.212E+00
   1    5    9     4     2    9.9091E+00  1.8158E-01   9.7275E+00  0.000E+00  0.000E+00  0.000E+00  1.07154E+03  6.315E-01  1.000E+01  5.000E-02  1.211E+00
   1    6    8     4     3    9.7275E+00  1.2689E-01   9.6006E+00  0.000E+00  0.000E+00  0.000E+00  1.06381E+03  6.256E-01  1.000E+01  3.500E-02  1.209E+00
   1    6    8     5     1    1.0432E+01  2.2686E-01   1.0205E+01  0.000E+00  0.000E+00  0.000E+00  1.05868E+03  6.790E-01  1.542E+01  6.166E-02  1.226E+00
   1    7    7     5     2    1.0205E+01  2.7894E-01   9.9265E+00  0.000E+00  0.000E+00  0.000E+00  1.05417E+03  6.732E-01  1.519E+01  7.594E-02  1.224E+00
   1    8    7     5     3    9.9265E+00  1.9221E-01   9.7343E+00  0.000E+00  0.000E+00  0.000E+00  1.04992E+03  6.676E-01  1.497E+01  5.241E-02  1.223E+00
   1    8    6     5     4    9.7343E+00  1.3577E-01   9.5985E+00  0.000E+00  0.000E+00  0.000E+00  1.04691E+03  6.637E-01  1.482E+01  3.706E-02  1.221E+00
   1    9    6     6     1    3.2957E+01  2.6627E-01   3.2691E+01  0.000E+00  0.000E+00  0.000E+00  1.04417E+03  1.438E+00  1.200E+01  6.000E-02  1.479E+00
   1   10    7     6     2    3.2691E+01  2.6584E-01   3.2425E+01  0.000E+00  0.000E+00  0.000E+00  1.03961E+03  1.431E+00  1.200E+01  6.000E-02  1.477E+00
   1   11    7     6     3    3.2425E+01  2.6542E-01   3.2159E+01  0.000E+00  0.000E+00  0.000E+00  1.03506E+03  1.424E+00  1.200E+01  6.000E-02  1.475E+00
   1   12    7     6     4    3.2159E+01  2.6500E-01   3.1894E+01  0.000E+00  0.000E+00  0.000E+00  1.03051E+03  1.417E+00  1.200E+01  6.000E-02  1.472E+00
   1   13    7     6     5    3.1894E+01  4.2596E-03   3.1890E+01  0.000E+00  0.000E+00  0.000E+00  1.02732E+03  1.413E+00  1.200E+01  2.400E-02  5.916E-02
   1   14    9     7     1    1.5000E+02  1.3359E+00   1.4866E+02  0.000E+00  0.000E+00  0.000E+00  1.03987E+03  2.288E+00  5.529E+01  5.593E-01  7.962E-01
   1   13    8     7     2    1.4866E+02  1.8252E+00   1.4684E+02  0.000E+00  0.000E+00  0.000E+00  1.03478E+03  2.279E+00  5.526E+01  6.148E-01  9.896E-01
   1   13    7     7     3    1.4684E+02  1.4214E+00   1.4542E+02  0.000E+00  0.000E+00  0.000E+00  1.02969E+03  2.271E+00  5.522E+01  5.585E-01  8.484E-01
   1   13    6     8     1    1.7731E+02  8.7860E-01   1.7643E+02  0.000E+00  0.000E+00  0.000E+00  1.02487E+03  2.996E+00  4.345E+01  4.427E-01  6.615E-01
   1   13    5     8     2    1.7643E+02  1.1420E-01   1.7631E+02  0.000E+00  0.000E+00  0.000E+00  1.01862E+03  2.993E+00  4.340E+01  4.423E-01  8.607E-02
   1   13    4     8     3    1.7631E+02 -2.9616E+00   1.7928E+02  0.000E+00  0.000E+00  0.000E+00  1.01238E+03  3.002E+00  4.353E+01  4.436E+00 -2.225E-01
   1   13    3     8     4    1.7928E+02 -4.1023E+00   1.8338E+02  0.000E+00  0.000E+00  0.000E+00  1.00615E+03  3.024E+00  4.386E+01  4.469E+00 -3.060E-01
   1   13    2     8     5    1.8338E+02 -3.0563E+00   1.8643E+02  0.000E+00  0.000E+00  0.000E+00  9.99922E+02  3.047E+00  4.418E+01  4.502E+00 -2.263E-01
   1   13    1     8     6    1.8643E+02 -2.2701E+00   1.8871E+02  0.000E+00  0.000E+00  0.000E+00  9.94938E+02  3.063E+00  4.442E+01  2.716E+00 -2.786E-01



 UBDSV3 SAVING "           GW ET" ON UNIT  61 AT TIME STEP  7, STRESS PERIOD   5
 UBDSV3 SAVING "    UZF RECHARGE" ON UNIT  61 AT TIME STEP  7, STRESS PERIOD   5
 UBDSV3 SAVING " SURFACE LEAKAGE" ON UNIT  61 AT TIME STEP  7, STRESS PERIOD   5
 UBDSV3 SAVING "       HORT+DUNN" ON UNIT  61 AT TIME STEP  7, STRESS PERIOD   5
 UBDSV3 SAVING "  STORAGE CHANGE" ON UNIT  61 AT TIME STEP  7, STRESS PERIOD   5


UNSATURATED ZONE PACKAGE VOLUMETRIC BUDGET FOR  TIME STEP     7 STRESS PERIOD    5
  ------------------------------------------------------------------------------



     CUMULATIVE VOLUMES      L**3       RATES FOR THIS TIME STEP      L**3/T
     ------------------                 ------------------------

           IN:                                      IN:
           ---                                      ---
        INFILTRATION =    44066601.0000          INFILTRATION =          60.8475

          OUT:                                     OUT:
          ----                                     ----
              UZF ET =      757970.7921                UZF ET =           1.3618
        UZF RECHARGE =     4482163.1881          UZF RECHARGE =           0.2900

            IN - OUT =    38826467.0198              IN - OUT =          59.1957

          STORAGE:                                 STORAGE:
          --------                                 --------
      STORAGE CHANGE =    38826467.7585        STORAGE CHANGE =          59.1957

 PERCENT DISCREPANCY IS DIFFERENCE BETWEEN IN-OUT MINUS CHANGE IN STORAGE
 DIVIDED BY THE AVERAGE OF IN AND OUT TIMES 100

 PERCENT DISCREPANCY =           0.00     PERCENT DISCREPANCY =           0.00






 

            AWU WELLS     PERIOD    5   STEP   7
 AWU WELL      1   LAYER   1   ROW     6   COL     4   RATE    -10.0000    
 AWU WELL      2   LAYER   1   ROW     6   COL     5   RATE    -10.0000    
 AWU WELL      3   LAYER   1   ROW     7   COL     4   RATE    -10.0000    
 AWU WELL      4   LAYER   1   ROW     7   COL     5   RATE    -10.0000    
 AWU WELL      5   LAYER   1   ROW     8   COL     4   RATE    -10.0000    
 AWU WELL      6   LAYER   1   ROW     8   COL     5   RATE    -10.0000    
 
 

        GW IRRIGATION     PERIOD    5   STEP   7
 AWU WELL      1   ROW     6   COL     4   RATE     10.0000    
 AWU WELL      2   ROW     6   COL     5   RATE     10.0000    
 AWU WELL      3   ROW     7   COL     4   RATE     10.0000    
 AWU WELL      4   ROW     7   COL     5   RATE     10.0000    
 AWU WELL      5   ROW     8   COL     4   RATE     10.0000    
 AWU WELL      6   ROW     8   COL     5   RATE     10.0000    
 
1
  VOLUMETRIC BUDGET FOR ENTIRE MODEL AT END OF TIME STEP    7, STRESS PERIOD   5
  ------------------------------------------------------------------------------

     CUMULATIVE VOLUMES      L**3       RATES FOR THIS TIME STEP      L**3/T
     ------------------                 ------------------------

           IN:                                      IN:
           ---                                      ---
               AWU WELLS =    36792000.0000                 AWU WELLS =          60.0000
      DIVERSION SEGMENTS =           0.0000        DIVERSION SEGMENTS =           0.0000
           GW IRRIGATION =           0.0000             GW IRRIGATION =           0.0000
           SW IRRIGATION =           0.0000             SW IRRIGATION =           0.0000
        SYSTEM LOSSES GW =           0.0000          SYSTEM LOSSES GW =           0.0000
        SYSTEM LOSSES SW =           0.0000          SYSTEM LOSSES SW =           0.0000

                TOTAL IN =    36792000.0000                  TOTAL IN =          60.0000

          OUT:                                     OUT:
          ----                                     ----
               AWU WELLS =           0.0000                 AWU WELLS =           0.0000
      DIVERSION SEGMENTS =           0.0000        DIVERSION SEGMENTS =           0.0000
           GW IRRIGATION =    36792000.0000             GW IRRIGATION =          60.0000
           SW IRRIGATION =           0.0000             SW IRRIGATION =           0.0000
        SYSTEM LOSSES GW =           0.0000          SYSTEM LOSSES GW =           0.0000
        SYSTEM LOSSES SW =           0.0000          SYSTEM LOSSES SW =           0.0000

               TOTAL OUT =    36792000.0000                 TOTAL OUT =          60.0000

                IN - OUT =           0.0000                  IN - OUT =           0.0000

     PERCENT DISCREPANCY =           0.00         PERCENT DISCREPANCY =           0.00



1
  VOLUMETRIC BUDGET FOR ENTIRE MODEL AT END OF TIME STEP    7, STRESS PERIOD   5
  ------------------------------------------------------------------------------

     CUMULATIVE VOLUMES      L**3       RATES FOR THIS TIME STEP      L**3/T
     ------------------                 ------------------------

           IN:                                      IN:
           ---                                      ---
             STORAGE     =    42426396.0000               STORAGE     =          62.3420
       CONSTANT HEAD     =           0.0000         CONSTANT HEAD     =           0.0000
     HEAD DEP BOUNDS     =     2452847.0000       HEAD DEP BOUNDS     =           0.2858
      STREAM LEAKAGE     =   106929088.0000        STREAM LEAKAGE     =          11.6852
        UZF RECHARGE     =     4482163.0000          UZF RECHARGE     =           0.2900
               GW ET     =           0.0000                 GW ET     =           0.0000
     SURFACE LEAKAGE     =           0.0000       SURFACE LEAKAGE     =           0.0000
           AWU WELLS     =           0.0000             AWU WELLS     =           0.0000

                TOTAL IN =   156290496.0000                  TOTAL IN =          74.6030

          OUT:                                     OUT:
          ----                                     ----
             STORAGE     =    29259188.0000               STORAGE     =           1.4099
       CONSTANT HEAD     =           0.0000         CONSTANT HEAD     =           0.0000
     HEAD DEP BOUNDS     =     2503844.2500       HEAD DEP BOUNDS     =           0.2954
      STREAM LEAKAGE     =    87264000.0000        STREAM LEAKAGE     =          12.3903
        UZF RECHARGE     =           0.0000          UZF RECHARGE     =           0.0000
               GW ET     =      479279.6250                 GW ET     =           0.5076
     SURFACE LEAKAGE     =           0.0000       SURFACE LEAKAGE     =           0.0000
           AWU WELLS     =    36792000.0000             AWU WELLS     =          60.0000

               TOTAL OUT =   156298304.0000                 TOTAL OUT =          74.6031

                IN - OUT =       -7808.0000                  IN - OUT =      -1.6022E-04

     PERCENT DISCREPANCY =          -0.00         PERCENT DISCREPANCY =          -0.00






         TIME SUMMARY AT END OF TIME STEP    7 IN STRESS PERIOD    5
                    SECONDS     MINUTES      HOURS       DAYS        YEARS
                    -----------------------------------------------------------
   TIME STEP LENGTH  87600.      1460.0      24.333      1.0139     2.77588E-03
 STRESS PERIOD TIME 6.13200E+05  10220.      170.33      7.0972     1.94311E-02
         TOTAL TIME 8.58360E+06 1.43060E+05  2384.3      99.347     0.27200    
1
 
 SOLVING FOR HEAD 
                                                   Max.-Head-Change                         Max.-Flux-Residual
  Residual-Control   Outer-Iter.   Inner-Iter.     Column Row Layer    Maximum-Head-Change  Column Row Layer    Maximum-Flux-Residual          L2-NORM 
          0                 1           2             4    7     1      -0.1826033439E+00       4    7    1        -0.9567584665E+01      0.2173383334E+02
          0                 2           2             4    7     1       0.1776193483E-01       4    7    1         0.9567329860E+00      0.2173046549E+01
          0                 3           2             4    7     1      -0.1209525730E-02       4    7    1        -0.6697157904E-01      0.1521052344E+00
          0                 4           1             4    7     1       0.4812813616E-04       4    7    1         0.2739140283E-02      0.6221673105E-02

    ------------------------------------------------
       NWT REQUIRED            4 OUTER ITERATIONS 
       AND A TOTAL OF          7 INNER ITERATIONS.
    ------------------------------------------------

 OUTPUT CONTROL FOR STRESS PERIOD    5   TIME STEP    8
    PRINT BUDGET
    SAVE BUDGET
 UBDSV1 SAVING "         STORAGE" ON UNIT 102 AT TIME STEP  8, STRESS PERIOD   5
 UBDSV2 SAVING "   CONSTANT HEAD" ON UNIT 102 AT TIME STEP  8, STRESS PERIOD   5
 UBDSV1 SAVING "FLOW RIGHT FACE " ON UNIT 102 AT TIME STEP  8, STRESS PERIOD   5
 UBDSV1 SAVING "FLOW FRONT FACE " ON UNIT 102 AT TIME STEP  8, STRESS PERIOD   5

  HEAD DEP BOUNDS   PERIOD    5   STEP     8
 BOUNDARY      1   LAYER   1   ROW    13   COL     1   RATE   -0.295152    
 BOUNDARY      2   LAYER   1   ROW    14   COL     9   RATE    0.285763    



 STREAM LISTING     PERIOD      5   STEP        8

 LAYER ROW COL. STREAM  RCH.  FLOW INTO     FLOW TO   FLOW OUT OF   OVRLND.     DIRECT     STREAM       STREAM     STREAM     STREAM   STREAMBED  STREAMBED
                SEG.NO.  NO.  STRM. RCH.    AQUIFER    STRM. RCH.    RUNOFF     PRECIP       ET          HEAD       DEPTH      WIDTH   CONDCTNC.   GRADIENT

   1    1    1     1     1    2.8000E+01  2.5860E-01   2.7741E+01  0.000E+00  0.000E+00  0.000E+00  1.09427E+03  1.221E+00  1.361E+01  6.126E-02  1.407E+00
   1    2    2     1     2    2.7741E+01  4.0002E-01   2.7341E+01  0.000E+00  0.000E+00  0.000E+00  1.08928E+03  1.217E+00  1.355E+01  9.487E-02  1.406E+00
   1    3    3     1     3    2.7341E+01  3.4070E-01   2.7001E+01  0.000E+00  0.000E+00  0.000E+00  1.08363E+03  1.212E+00  1.348E+01  8.090E-02  1.404E+00
   1    3    4     1     4    2.7001E+01  3.1335E-01   2.6687E+01  0.000E+00  0.000E+00  0.000E+00  1.07861E+03  1.207E+00  1.342E+01  7.448E-02  1.402E+00
   1    4    5     2     1    2.4687E+01  3.2711E-01   2.4360E+01  0.000E+00  0.000E+00  0.000E+00  1.07313E+03  1.194E+00  1.200E+01  7.800E-02  1.398E+00
   1    5    6     2     2    2.4360E+01  2.5111E-01   2.4109E+01  0.000E+00  0.000E+00  0.000E+00  1.06769E+03  1.185E+00  1.200E+01  6.000E-02  1.395E+00
   1    6    6     2     3    2.4109E+01  2.5067E-01   2.3858E+01  0.000E+00  0.000E+00  0.000E+00  1.06297E+03  1.178E+00  1.200E+01  6.000E-02  1.393E+00
   1    7    6     2     4    2.3858E+01  2.5023E-01   2.3608E+01  0.000E+00  0.000E+00  0.000E+00  1.05825E+03  1.170E+00  1.200E+01  6.000E-02  1.390E+00
   1    8    6     2     5    2.3608E+01  2.4978E-01   2.3358E+01  0.000E+00  0.000E+00  0.000E+00  1.05352E+03  1.163E+00  1.200E+01  6.000E-02  1.388E+00
   1    3    5     3     1    2.0000E+00  2.8252E-01   1.7175E+00  0.000E+00  0.000E+00  0.000E+00  1.07555E+03  1.909E+00  9.636E+00  7.227E-02  1.955E+00
   1    3    6     3     2    1.7175E+00  2.4905E-01   1.4684E+00  0.000E+00  0.000E+00  0.000E+00  1.07264E+03  1.727E+00  8.909E+00  6.682E-02  1.864E+00
   1    3    7     3     3    1.4684E+00  1.9718E-01   1.2712E+00  0.000E+00  0.000E+00  0.000E+00  1.06987E+03  1.555E+00  8.218E+00  5.547E-02  1.777E+00
   1    4    8     3     4    1.2712E+00  2.2567E-01   1.0456E+00  0.000E+00  0.000E+00  0.000E+00  1.06682E+03  1.364E+00  7.455E+00  6.709E-02  1.682E+00
   1    5    8     3     5    1.0456E+00  1.5790E-01   8.8768E-01  0.000E+00  0.000E+00  0.000E+00  1.06362E+03  1.164E+00  6.655E+00  4.991E-02  1.582E+00
   1    6    8     3     6    8.8768E-01  5.5980E-02   8.3170E-01  0.000E+00  0.000E+00  0.000E+00  1.06158E+03  1.036E+00  6.145E+00  1.844E-02  1.518E+00
   1    5   10     4     1    1.0000E+01  9.0919E-02   9.9091E+00  0.000E+00  0.000E+00  0.000E+00  1.07836E+03  6.368E-01  1.000E+01  2.500E-02  1.212E+00
   1    5    9     4     2    9.9091E+00  1.8158E-01   9.7275E+00  0.000E+00  0.000E+00  0.000E+00  1.07154E+03  6.315E-01  1.000E+01  5.000E-02  1.211E+00
   1    6    8     4     3    9.7275E+00  1.2689E-01   9.6006E+00  0.000E+00  0.000E+00  0.000E+00  1.06381E+03  6.256E-01  1.000E+01  3.500E-02  1.209E+00
   1    6    8     5     1    1.0432E+01  2.2686E-01   1.0205E+01  0.000E+00  0.000E+00  0.000E+00  1.05868E+03  6.790E-01  1.542E+01  6.166E-02  1.226E+00
   1    7    7     5     2    1.0205E+01  2.7894E-01   9.9265E+00  0.000E+00  0.000E+00  0.000E+00  1.05417E+03  6.732E-01  1.519E+01  7.594E-02  1.224E+00
   1    8    7     5     3    9.9265E+00  1.9221E-01   9.7343E+00  0.000E+00  0.000E+00  0.000E+00  1.04992E+03  6.676E-01  1.497E+01  5.241E-02  1.223E+00
   1    8    6     5     4    9.7343E+00  1.3577E-01   9.5985E+00  0.000E+00  0.000E+00  0.000E+00  1.04691E+03  6.637E-01  1.482E+01  3.706E-02  1.221E+00
   1    9    6     6     1    3.2957E+01  2.6627E-01   3.2691E+01  0.000E+00  0.000E+00  0.000E+00  1.04417E+03  1.438E+00  1.200E+01  6.000E-02  1.479E+00
   1   10    7     6     2    3.2691E+01  2.6584E-01   3.2425E+01  0.000E+00  0.000E+00  0.000E+00  1.03961E+03  1.431E+00  1.200E+01  6.000E-02  1.477E+00
   1   11    7     6     3    3.2425E+01  2.6542E-01   3.2159E+01  0.000E+00  0.000E+00  0.000E+00  1.03506E+03  1.424E+00  1.200E+01  6.000E-02  1.475E+00
   1   12    7     6     4    3.2159E+01  2.6500E-01   3.1894E+01  0.000E+00  0.000E+00  0.000E+00  1.03051E+03  1.417E+00  1.200E+01  6.000E-02  1.472E+00
   1   13    7     6     5    3.1894E+01  4.2544E-03   3.1890E+01  0.000E+00  0.000E+00  0.000E+00  1.02732E+03  1.413E+00  1.200E+01  2.400E-02  5.909E-02
   1   14    9     7     1    1.5000E+02  1.3359E+00   1.4866E+02  0.000E+00  0.000E+00  0.000E+00  1.03987E+03  2.288E+00  5.529E+01  5.593E-01  7.962E-01
   1   13    8     7     2    1.4866E+02  1.8250E+00   1.4684E+02  0.000E+00  0.000E+00  0.000E+00  1.03478E+03  2.279E+00  5.526E+01  6.148E-01  9.895E-01
   1   13    7     7     3    1.4684E+02  1.4213E+00   1.4542E+02  0.000E+00  0.000E+00  0.000E+00  1.02969E+03  2.271E+00  5.522E+01  5.585E-01  8.483E-01
   1   13    6     8     1    1.7731E+02  8.7936E-01   1.7643E+02  0.000E+00  0.000E+00  0.000E+00  1.02487E+03  2.996E+00  4.345E+01  4.427E-01  6.621E-01
   1   13    5     8     2    1.7643E+02  1.1526E-01   1.7631E+02  0.000E+00  0.000E+00  0.000E+00  1.01862E+03  2.993E+00  4.340E+01  4.423E-01  8.687E-02
   1   13    4     8     3    1.7631E+02 -2.9249E+00   1.7924E+02  0.000E+00  0.000E+00  0.000E+00  1.01238E+03  3.002E+00  4.353E+01  4.436E+00 -2.198E-01
   1   13    3     8     4    1.7924E+02 -4.0660E+00   1.8330E+02  0.000E+00  0.000E+00  0.000E+00  1.00615E+03  3.024E+00  4.385E+01  4.468E+00 -3.033E-01
   1   13    2     8     5    1.8330E+02 -3.0180E+00   1.8632E+02  0.000E+00  0.000E+00  0.000E+00  9.99921E+02  3.046E+00  4.417E+01  4.501E+00 -2.235E-01
   1   13    1     8     6    1.8632E+02 -2.2528E+00   1.8858E+02  0.000E+00  0.000E+00  0.000E+00  9.94937E+02  3.062E+00  4.440E+01  2.715E+00 -2.766E-01



 UBDSV3 SAVING "           GW ET" ON UNIT  61 AT TIME STEP  8, STRESS PERIOD   5
 UBDSV3 SAVING "    UZF RECHARGE" ON UNIT  61 AT TIME STEP  8, STRESS PERIOD   5
 UBDSV3 SAVING " SURFACE LEAKAGE" ON UNIT  61 AT TIME STEP  8, STRESS PERIOD   5
 UBDSV3 SAVING "       HORT+DUNN" ON UNIT  61 AT TIME STEP  8, STRESS PERIOD   5
 UBDSV3 SAVING "  STORAGE CHANGE" ON UNIT  61 AT TIME STEP  8, STRESS PERIOD   5


UNSATURATED ZONE PACKAGE VOLUMETRIC BUDGET FOR  TIME STEP     8 STRESS PERIOD    5
  ------------------------------------------------------------------------------



     CUMULATIVE VOLUMES      L**3       RATES FOR THIS TIME STEP      L**3/T
     ------------------                 ------------------------

           IN:                                      IN:
           ---                                      ---
        INFILTRATION =    49396842.0000          INFILTRATION =          60.8475

          OUT:                                     OUT:
          ----                                     ----
              UZF ET =      884120.8121                UZF ET =           1.4401
        UZF RECHARGE =     4506927.2656          UZF RECHARGE =           0.2827

            IN - OUT =    44005793.9224              IN - OUT =          59.1247

          STORAGE:                                 STORAGE:
          --------                                 --------
      STORAGE CHANGE =    44005794.7713        STORAGE CHANGE =          59.1247

 PERCENT DISCREPANCY IS DIFFERENCE BETWEEN IN-OUT MINUS CHANGE IN STORAGE
 DIVIDED BY THE AVERAGE OF IN AND OUT TIMES 100

 PERCENT DISCREPANCY =          -0.00     PERCENT DISCREPANCY =           0.00






 

            AWU WELLS     PERIOD    5   STEP   8
 AWU WELL      1   LAYER   1   ROW     6   COL     4   RATE    -10.0000    
 AWU WELL      2   LAYER   1   ROW     6   COL     5   RATE    -10.0000    
 AWU WELL      3   LAYER   1   ROW     7   COL     4   RATE    -10.0000    
 AWU WELL      4   LAYER   1   ROW     7   COL     5   RATE    -10.0000    
 AWU WELL      5   LAYER   1   ROW     8   COL     4   RATE    -10.0000    
 AWU WELL      6   LAYER   1   ROW     8   COL     5   RATE    -10.0000    
 
 

        GW IRRIGATION     PERIOD    5   STEP   8
 AWU WELL      1   ROW     6   COL     4   RATE     10.0000    
 AWU WELL      2   ROW     6   COL     5   RATE     10.0000    
 AWU WELL      3   ROW     7   COL     4   RATE     10.0000    
 AWU WELL      4   ROW     7   COL     5   RATE     10.0000    
 AWU WELL      5   ROW     8   COL     4   RATE     10.0000    
 AWU WELL      6   ROW     8   COL     5   RATE     10.0000    
 
1
  VOLUMETRIC BUDGET FOR ENTIRE MODEL AT END OF TIME STEP    8, STRESS PERIOD   5
  ------------------------------------------------------------------------------

     CUMULATIVE VOLUMES      L**3       RATES FOR THIS TIME STEP      L**3/T
     ------------------                 ------------------------

           IN:                                      IN:
           ---                                      ---
               AWU WELLS =    42048000.0000                 AWU WELLS =          60.0000
      DIVERSION SEGMENTS =           0.0000        DIVERSION SEGMENTS =           0.0000
           GW IRRIGATION =           0.0000             GW IRRIGATION =           0.0000
           SW IRRIGATION =           0.0000             SW IRRIGATION =           0.0000
        SYSTEM LOSSES GW =           0.0000          SYSTEM LOSSES GW =           0.0000
        SYSTEM LOSSES SW =           0.0000          SYSTEM LOSSES SW =           0.0000

                TOTAL IN =    42048000.0000                  TOTAL IN =          60.0000

          OUT:                                     OUT:
          ----                                     ----
               AWU WELLS =           0.0000                 AWU WELLS =           0.0000
      DIVERSION SEGMENTS =           0.0000        DIVERSION SEGMENTS =           0.0000
           GW IRRIGATION =    42048000.0000             GW IRRIGATION =          60.0000
           SW IRRIGATION =           0.0000             SW IRRIGATION =           0.0000
        SYSTEM LOSSES GW =           0.0000          SYSTEM LOSSES GW =           0.0000
        SYSTEM LOSSES SW =           0.0000          SYSTEM LOSSES SW =           0.0000

               TOTAL OUT =    42048000.0000                 TOTAL OUT =          60.0000

                IN - OUT =           0.0000                  IN - OUT =           0.0000

     PERCENT DISCREPANCY =           0.00         PERCENT DISCREPANCY =           0.00



1
  VOLUMETRIC BUDGET FOR ENTIRE MODEL AT END OF TIME STEP    8, STRESS PERIOD   5
  ------------------------------------------------------------------------------

     CUMULATIVE VOLUMES      L**3       RATES FOR THIS TIME STEP      L**3/T
     ------------------                 ------------------------

           IN:                                      IN:
           ---                                      ---
             STORAGE     =    47871472.0000               STORAGE     =          62.1584
       CONSTANT HEAD     =           0.0000         CONSTANT HEAD     =           0.0000
     HEAD DEP BOUNDS     =     2477879.7500       HEAD DEP BOUNDS     =           0.2858
      STREAM LEAKAGE     =   107952840.0000        STREAM LEAKAGE     =          11.6867
        UZF RECHARGE     =     4506927.0000          UZF RECHARGE     =           0.2827
               GW ET     =           0.0000                 GW ET     =           0.0000
     SURFACE LEAKAGE     =           0.0000       SURFACE LEAKAGE     =           0.0000
           AWU WELLS     =           0.0000             AWU WELLS     =           0.0000

                TOTAL IN =   162809120.0000                  TOTAL IN =          74.4135

          OUT:                                     OUT:
          ----                                     ----
             STORAGE     =    29377472.0000               STORAGE     =           1.3503
       CONSTANT HEAD     =           0.0000         CONSTANT HEAD     =           0.0000
     HEAD DEP BOUNDS     =     2529699.5000       HEAD DEP BOUNDS     =           0.2952
      STREAM LEAKAGE     =    88338136.0000        STREAM LEAKAGE     =          12.2618
        UZF RECHARGE     =           0.0000          UZF RECHARGE     =           0.0000
               GW ET     =      523644.4375                 GW ET     =           0.5064
     SURFACE LEAKAGE     =           0.0000       SURFACE LEAKAGE     =           0.0000
           AWU WELLS     =    42048000.0000             AWU WELLS     =          60.0000

               TOTAL OUT =   162816960.0000                 TOTAL OUT =          74.4137

                IN - OUT =       -7840.0000                  IN - OUT =      -1.6785E-04

     PERCENT DISCREPANCY =          -0.00         PERCENT DISCREPANCY =          -0.00






         TIME SUMMARY AT END OF TIME STEP    8 IN STRESS PERIOD    5
                    SECONDS     MINUTES      HOURS       DAYS        YEARS
                    -----------------------------------------------------------
   TIME STEP LENGTH  87600.      1460.0      24.333      1.0139     2.77588E-03
 STRESS PERIOD TIME 7.00800E+05  11680.      194.67      8.1111     2.22070E-02
         TOTAL TIME 8.67120E+06 1.44520E+05  2408.7      100.36     0.27477    
1
 
 SOLVING FOR HEAD 
                                                   Max.-Head-Change                         Max.-Flux-Residual
  Residual-Control   Outer-Iter.   Inner-Iter.     Column Row Layer    Maximum-Head-Change  Column Row Layer    Maximum-Flux-Residual          L2-NORM 
          0                 1           2             4    7     1      -0.1811706582E+00       4    7    1        -0.9495203992E+01      0.2140739335E+02
          0                 2           2             4    7     1       0.1762255984E-01       4    7    1         0.9494939348E+00      0.2140429467E+01
          0                 3           2             4    7     1      -0.1200034953E-02       4    7    1        -0.6646485456E-01      0.1498234019E+00
          0                 4           1             4    7     1       0.4775049507E-04       4    7    1         0.2718415166E-02      0.6128404318E-02

    ------------------------------------------------
       NWT REQUIRED            4 OUTER ITERATIONS 
       AND A TOTAL OF          7 INNER ITERATIONS.
    ------------------------------------------------

 OUTPUT CONTROL FOR STRESS PERIOD    5   TIME STEP    9
    PRINT BUDGET
    SAVE BUDGET
 UBDSV1 SAVING "         STORAGE" ON UNIT 102 AT TIME STEP  9, STRESS PERIOD   5
 UBDSV2 SAVING "   CONSTANT HEAD" ON UNIT 102 AT TIME STEP  9, STRESS PERIOD   5
 UBDSV1 SAVING "FLOW RIGHT FACE " ON UNIT 102 AT TIME STEP  9, STRESS PERIOD   5
 UBDSV1 SAVING "FLOW FRONT FACE " ON UNIT 102 AT TIME STEP  9, STRESS PERIOD   5

  HEAD DEP BOUNDS   PERIOD    5   STEP     9
 BOUNDARY      1   LAYER   1   ROW    13   COL     1   RATE   -0.294901    
 BOUNDARY      2   LAYER   1   ROW    14   COL     9   RATE    0.285763    



 STREAM LISTING     PERIOD      5   STEP        9

 LAYER ROW COL. STREAM  RCH.  FLOW INTO     FLOW TO   FLOW OUT OF   OVRLND.     DIRECT     STREAM       STREAM     STREAM     STREAM   STREAMBED  STREAMBED
                SEG.NO.  NO.  STRM. RCH.    AQUIFER    STRM. RCH.    RUNOFF     PRECIP       ET          HEAD       DEPTH      WIDTH   CONDCTNC.   GRADIENT

   1    1    1     1     1    2.8000E+01  2.5860E-01   2.7741E+01  0.000E+00  0.000E+00  0.000E+00  1.09427E+03  1.221E+00  1.361E+01  6.126E-02  1.407E+00
   1    2    2     1     2    2.7741E+01  4.0002E-01   2.7341E+01  0.000E+00  0.000E+00  0.000E+00  1.08928E+03  1.217E+00  1.355E+01  9.487E-02  1.406E+00
   1    3    3     1     3    2.7341E+01  3.4070E-01   2.7001E+01  0.000E+00  0.000E+00  0.000E+00  1.08363E+03  1.212E+00  1.348E+01  8.090E-02  1.404E+00
   1    3    4     1     4    2.7001E+01  3.1335E-01   2.6687E+01  0.000E+00  0.000E+00  0.000E+00  1.07861E+03  1.207E+00  1.342E+01  7.448E-02  1.402E+00
   1    4    5     2     1    2.4687E+01  3.2711E-01   2.4360E+01  0.000E+00  0.000E+00  0.000E+00  1.07313E+03  1.194E+00  1.200E+01  7.800E-02  1.398E+00
   1    5    6     2     2    2.4360E+01  2.5111E-01   2.4109E+01  0.000E+00  0.000E+00  0.000E+00  1.06769E+03  1.185E+00  1.200E+01  6.000E-02  1.395E+00
   1    6    6     2     3    2.4109E+01  2.5067E-01   2.3858E+01  0.000E+00  0.000E+00  0.000E+00  1.06297E+03  1.178E+00  1.200E+01  6.000E-02  1.393E+00
   1    7    6     2     4    2.3858E+01  2.5023E-01   2.3608E+01  0.000E+00  0.000E+00  0.000E+00  1.05825E+03  1.170E+00  1.200E+01  6.000E-02  1.390E+00
   1    8    6     2     5    2.3608E+01  2.4978E-01   2.3358E+01  0.000E+00  0.000E+00  0.000E+00  1.05352E+03  1.163E+00  1.200E+01  6.000E-02  1.388E+00
   1    3    5     3     1    2.0000E+00  2.8252E-01   1.7175E+00  0.000E+00  0.000E+00  0.000E+00  1.07555E+03  1.909E+00  9.636E+00  7.227E-02  1.955E+00
   1    3    6     3     2    1.7175E+00  2.4905E-01   1.4684E+00  0.000E+00  0.000E+00  0.000E+00  1.07264E+03  1.727E+00  8.909E+00  6.682E-02  1.864E+00
   1    3    7     3     3    1.4684E+00  1.9718E-01   1.2712E+00  0.000E+00  0.000E+00  0.000E+00  1.06987E+03  1.555E+00  8.218E+00  5.547E-02  1.777E+00
   1    4    8     3     4    1.2712E+00  2.2567E-01   1.0456E+00  0.000E+00  0.000E+00  0.000E+00  1.06682E+03  1.364E+00  7.455E+00  6.709E-02  1.682E+00
   1    5    8     3     5    1.0456E+00  1.5790E-01   8.8768E-01  0.000E+00  0.000E+00  0.000E+00  1.06362E+03  1.164E+00  6.655E+00  4.991E-02  1.582E+00
   1    6    8     3     6    8.8768E-01  5.5980E-02   8.3170E-01  0.000E+00  0.000E+00  0.000E+00  1.06158E+03  1.036E+00  6.145E+00  1.844E-02  1.518E+00
   1    5   10     4     1    1.0000E+01  9.0919E-02   9.9091E+00  0.000E+00  0.000E+00  0.000E+00  1.07836E+03  6.368E-01  1.000E+01  2.500E-02  1.212E+00
   1    5    9     4     2    9.9091E+00  1.8158E-01   9.7275E+00  0.000E+00  0.000E+00  0.000E+00  1.07154E+03  6.315E-01  1.000E+01  5.000E-02  1.211E+00
   1    6    8     4     3    9.7275E+00  1.2689E-01   9.6006E+00  0.000E+00  0.000E+00  0.000E+00  1.06381E+03  6.256E-01  1.000E+01  3.500E-02  1.209E+00
   1    6    8     5     1    1.0432E+01  2.2686E-01   1.0205E+01  0.000E+00  0.000E+00  0.000E+00  1.05868E+03  6.790E-01  1.542E+01  6.166E-02  1.226E+00
   1    7    7     5     2    1.0205E+01  2.7894E-01   9.9265E+00  0.000E+00  0.000E+00  0.000E+00  1.05417E+03  6.732E-01  1.519E+01  7.594E-02  1.224E+00
   1    8    7     5     3    9.9265E+00  1.9221E-01   9.7343E+00  0.000E+00  0.000E+00  0.000E+00  1.04992E+03  6.676E-01  1.497E+01  5.241E-02  1.223E+00
   1    8    6     5     4    9.7343E+00  1.3577E-01   9.5985E+00  0.000E+00  0.000E+00  0.000E+00  1.04691E+03  6.637E-01  1.482E+01  3.706E-02  1.221E+00
   1    9    6     6     1    3.2957E+01  2.6627E-01   3.2691E+01  0.000E+00  0.000E+00  0.000E+00  1.04417E+03  1.438E+00  1.200E+01  6.000E-02  1.479E+00
   1   10    7     6     2    3.2691E+01  2.6584E-01   3.2425E+01  0.000E+00  0.000E+00  0.000E+00  1.03961E+03  1.431E+00  1.200E+01  6.000E-02  1.477E+00
   1   11    7     6     3    3.2425E+01  2.6542E-01   3.2159E+01  0.000E+00  0.000E+00  0.000E+00  1.03506E+03  1.424E+00  1.200E+01  6.000E-02  1.475E+00
   1   12    7     6     4    3.2159E+01  2.6500E-01   3.1894E+01  0.000E+00  0.000E+00  0.000E+00  1.03051E+03  1.417E+00  1.200E+01  6.000E-02  1.472E+00
   1   13    7     6     5    3.1894E+01  4.2497E-03   3.1890E+01  0.000E+00  0.000E+00  0.000E+00  1.02732E+03  1.413E+00  1.200E+01  2.400E-02  5.902E-02
   1   14    9     7     1    1.5000E+02  1.3359E+00   1.4866E+02  0.000E+00  0.000E+00  0.000E+00  1.03987E+03  2.288E+00  5.529E+01  5.593E-01  7.962E-01
   1   13    8     7     2    1.4866E+02  1.8248E+00   1.4684E+02  0.000E+00  0.000E+00  0.000E+00  1.03478E+03  2.279E+00  5.526E+01  6.148E-01  9.894E-01
   1   13    7     7     3    1.4684E+02  1.4212E+00   1.4542E+02  0.000E+00  0.000E+00  0.000E+00  1.02969E+03  2.271E+00  5.522E+01  5.585E-01  8.483E-01
   1   13    6     8     1    1.7731E+02  8.8009E-01   1.7643E+02  0.000E+00  0.000E+00  0.000E+00  1.02487E+03  2.996E+00  4.345E+01  4.427E-01  6.626E-01
   1   13    5     8     2    1.7643E+02  1.1630E-01   1.7631E+02  0.000E+00  0.000E+00  0.000E+00  1.01862E+03  2.993E+00  4.340E+01  4.423E-01  8.766E-02
   1   13    4     8     3    1.7631E+02 -2.8916E+00   1.7920E+02  0.000E+00  0.000E+00  0.000E+00  1.01238E+03  3.002E+00  4.353E+01  4.436E+00 -2.173E-01
   1   13    3     8     4    1.7920E+02 -4.0327E+00   1.8324E+02  0.000E+00  0.000E+00  0.000E+00  1.00615E+03  3.024E+00  4.385E+01  4.468E+00 -3.009E-01
   1   13    2     8     5    1.8324E+02 -2.9826E+00   1.8622E+02  0.000E+00  0.000E+00  0.000E+00  9.99921E+02  3.046E+00  4.416E+01  4.500E+00 -2.209E-01
   1   13    1     8     6    1.8622E+02 -2.2363E+00   1.8846E+02  0.000E+00  0.000E+00  0.000E+00  9.94937E+02  3.062E+00  4.439E+01  2.714E+00 -2.746E-01



 UBDSV3 SAVING "           GW ET" ON UNIT  61 AT TIME STEP  9, STRESS PERIOD   5
 UBDSV3 SAVING "    UZF RECHARGE" ON UNIT  61 AT TIME STEP  9, STRESS PERIOD   5
 UBDSV3 SAVING " SURFACE LEAKAGE" ON UNIT  61 AT TIME STEP  9, STRESS PERIOD   5
 UBDSV3 SAVING "       HORT+DUNN" ON UNIT  61 AT TIME STEP  9, STRESS PERIOD   5
 UBDSV3 SAVING "  STORAGE CHANGE" ON UNIT  61 AT TIME STEP  9, STRESS PERIOD   5


UNSATURATED ZONE PACKAGE VOLUMETRIC BUDGET FOR  TIME STEP     9 STRESS PERIOD    5
  ------------------------------------------------------------------------------



     CUMULATIVE VOLUMES      L**3       RATES FOR THIS TIME STEP      L**3/T
     ------------------                 ------------------------

           IN:                                      IN:
           ---                                      ---
        INFILTRATION =    54727083.0000          INFILTRATION =          60.8475

          OUT:                                     OUT:
          ----                                     ----
              UZF ET =     1017113.2475                UZF ET =           1.5182
        UZF RECHARGE =     4531077.4501          UZF RECHARGE =           0.2757

            IN - OUT =    49178892.3024              IN - OUT =          59.0536

          STORAGE:                                 STORAGE:
          --------                                 --------
      STORAGE CHANGE =    49178893.2608        STORAGE CHANGE =          59.0536

 PERCENT DISCREPANCY IS DIFFERENCE BETWEEN IN-OUT MINUS CHANGE IN STORAGE
 DIVIDED BY THE AVERAGE OF IN AND OUT TIMES 100

 PERCENT DISCREPANCY =           0.00     PERCENT DISCREPANCY =           0.00






 

            AWU WELLS     PERIOD    5   STEP   9
 AWU WELL      1   LAYER   1   ROW     6   COL     4   RATE    -10.0000    
 AWU WELL      2   LAYER   1   ROW     6   COL     5   RATE    -10.0000    
 AWU WELL      3   LAYER   1   ROW     7   COL     4   RATE    -10.0000    
 AWU WELL      4   LAYER   1   ROW     7   COL     5   RATE    -10.0000    
 AWU WELL      5   LAYER   1   ROW     8   COL     4   RATE    -10.0000    
 AWU WELL      6   LAYER   1   ROW     8   COL     5   RATE    -10.0000    
 
 

        GW IRRIGATION     PERIOD    5   STEP   9
 AWU WELL      1   ROW     6   COL     4   RATE     10.0000    
 AWU WELL      2   ROW     6   COL     5   RATE     10.0000    
 AWU WELL      3   ROW     7   COL     4   RATE     10.0000    
 AWU WELL      4   ROW     7   COL     5   RATE     10.0000    
 AWU WELL      5   ROW     8   COL     4   RATE     10.0000    
 AWU WELL      6   ROW     8   COL     5   RATE     10.0000    
 
1
  VOLUMETRIC BUDGET FOR ENTIRE MODEL AT END OF TIME STEP    9, STRESS PERIOD   5
  ------------------------------------------------------------------------------

     CUMULATIVE VOLUMES      L**3       RATES FOR THIS TIME STEP      L**3/T
     ------------------                 ------------------------

           IN:                                      IN:
           ---                                      ---
               AWU WELLS =    47304000.0000                 AWU WELLS =          60.0000
      DIVERSION SEGMENTS =           0.0000        DIVERSION SEGMENTS =           0.0000
           GW IRRIGATION =           0.0000             GW IRRIGATION =           0.0000
           SW IRRIGATION =           0.0000             SW IRRIGATION =           0.0000
        SYSTEM LOSSES GW =           0.0000          SYSTEM LOSSES GW =           0.0000
        SYSTEM LOSSES SW =           0.0000          SYSTEM LOSSES SW =           0.0000

                TOTAL IN =    47304000.0000                  TOTAL IN =          60.0000

          OUT:                                     OUT:
          ----                                     ----
               AWU WELLS =           0.0000                 AWU WELLS =           0.0000
      DIVERSION SEGMENTS =           0.0000        DIVERSION SEGMENTS =           0.0000
           GW IRRIGATION =    47304000.0000             GW IRRIGATION =          60.0000
           SW IRRIGATION =           0.0000             SW IRRIGATION =           0.0000
        SYSTEM LOSSES GW =           0.0000          SYSTEM LOSSES GW =           0.0000
        SYSTEM LOSSES SW =           0.0000          SYSTEM LOSSES SW =           0.0000

               TOTAL OUT =    47304000.0000                 TOTAL OUT =          60.0000

                IN - OUT =           0.0000                  IN - OUT =           0.0000

     PERCENT DISCREPANCY =           0.00         PERCENT DISCREPANCY =           0.00



1
  VOLUMETRIC BUDGET FOR ENTIRE MODEL AT END OF TIME STEP    9, STRESS PERIOD   5
  ------------------------------------------------------------------------------

     CUMULATIVE VOLUMES      L**3       RATES FOR THIS TIME STEP      L**3/T
     ------------------                 ------------------------

           IN:                                      IN:
           ---                                      ---
             STORAGE     =    53301196.0000               STORAGE     =          61.9831
       CONSTANT HEAD     =           0.0000         CONSTANT HEAD     =           0.0000
     HEAD DEP BOUNDS     =     2502912.5000       HEAD DEP BOUNDS     =           0.2858
      STREAM LEAKAGE     =   108976720.0000        STREAM LEAKAGE     =          11.6881
        UZF RECHARGE     =     4531077.0000          UZF RECHARGE     =           0.2757
               GW ET     =           0.0000                 GW ET     =           0.0000
     SURFACE LEAKAGE     =           0.0000       SURFACE LEAKAGE     =           0.0000
           AWU WELLS     =           0.0000             AWU WELLS     =           0.0000

                TOTAL IN =   169311904.0000                  TOTAL IN =          74.2327

          OUT:                                     OUT:
          ----                                     ----
             STORAGE     =    29490424.0000               STORAGE     =           1.2894
       CONSTANT HEAD     =           0.0000         CONSTANT HEAD     =           0.0000
     HEAD DEP BOUNDS     =     2555532.7500       HEAD DEP BOUNDS     =           0.2949
      STREAM LEAKAGE     =    89401880.0000        STREAM LEAKAGE     =          12.1432
        UZF RECHARGE     =           0.0000          UZF RECHARGE     =           0.0000
               GW ET     =      567916.1250                 GW ET     =           0.5054
     SURFACE LEAKAGE     =           0.0000       SURFACE LEAKAGE     =           0.0000
           AWU WELLS     =    47304000.0000             AWU WELLS     =          60.0000

               TOTAL OUT =   169319760.0000                 TOTAL OUT =          74.2329

                IN - OUT =       -7856.0000                  IN - OUT =      -1.6022E-04

     PERCENT DISCREPANCY =          -0.00         PERCENT DISCREPANCY =          -0.00






         TIME SUMMARY AT END OF TIME STEP    9 IN STRESS PERIOD    5
                    SECONDS     MINUTES      HOURS       DAYS        YEARS
                    -----------------------------------------------------------
   TIME STEP LENGTH  87600.      1460.0      24.333      1.0139     2.77588E-03
 STRESS PERIOD TIME 7.88400E+05  13140.      219.00      9.1250     2.49829E-02
         TOTAL TIME 8.75880E+06 1.45980E+05  2433.0      101.38     0.27755    
1
 
 SOLVING FOR HEAD 
                                                   Max.-Head-Change                         Max.-Flux-Residual
  Residual-Control   Outer-Iter.   Inner-Iter.     Column Row Layer    Maximum-Head-Change  Column Row Layer    Maximum-Flux-Residual          L2-NORM 
          0                 1           2             4    7     1      -0.1495253074E+00       4    7    1        -0.7843885038E+01      0.1728480228E+02
          0                 2           2             5    6     1      -0.1753487287E-01       5    6    1        -0.9435333236E+00      0.2182474166E+01
          0                 3           2             5    6     1       0.1705664332E-02       5    6    1         0.9428163519E-01      0.2172919046E+00
          0                 4           2             5    6     1      -0.1161494267E-03       5    6    1        -0.6594852807E-02      0.1516316222E-01
          0                 5           1             5    6     1       0.4621688145E-05       5    6    1         0.2695368246E-03      0.6191122173E-03

    ------------------------------------------------
       NWT REQUIRED            5 OUTER ITERATIONS 
       AND A TOTAL OF          9 INNER ITERATIONS.
    ------------------------------------------------

 OUTPUT CONTROL FOR STRESS PERIOD    5   TIME STEP   10
    PRINT BUDGET
    SAVE BUDGET
 UBDSV1 SAVING "         STORAGE" ON UNIT 102 AT TIME STEP 10, STRESS PERIOD   5
 UBDSV2 SAVING "   CONSTANT HEAD" ON UNIT 102 AT TIME STEP 10, STRESS PERIOD   5
 UBDSV1 SAVING "FLOW RIGHT FACE " ON UNIT 102 AT TIME STEP 10, STRESS PERIOD   5
 UBDSV1 SAVING "FLOW FRONT FACE " ON UNIT 102 AT TIME STEP 10, STRESS PERIOD   5

  HEAD DEP BOUNDS   PERIOD    5   STEP    10
 BOUNDARY      1   LAYER   1   ROW    13   COL     1   RATE   -0.294661    
 BOUNDARY      2   LAYER   1   ROW    14   COL     9   RATE    0.285762    



 STREAM LISTING     PERIOD      5   STEP       10

 LAYER ROW COL. STREAM  RCH.  FLOW INTO     FLOW TO   FLOW OUT OF   OVRLND.     DIRECT     STREAM       STREAM     STREAM     STREAM   STREAMBED  STREAMBED
                SEG.NO.  NO.  STRM. RCH.    AQUIFER    STRM. RCH.    RUNOFF     PRECIP       ET          HEAD       DEPTH      WIDTH   CONDCTNC.   GRADIENT

   1    1    1     1     1    2.8000E+01  2.5860E-01   2.7741E+01  0.000E+00  0.000E+00  0.000E+00  1.09427E+03  1.221E+00  1.361E+01  6.126E-02  1.407E+00
   1    2    2     1     2    2.7741E+01  4.0002E-01   2.7341E+01  0.000E+00  0.000E+00  0.000E+00  1.08928E+03  1.217E+00  1.355E+01  9.487E-02  1.406E+00
   1    3    3     1     3    2.7341E+01  3.4070E-01   2.7001E+01  0.000E+00  0.000E+00  0.000E+00  1.08363E+03  1.212E+00  1.348E+01  8.090E-02  1.404E+00
   1    3    4     1     4    2.7001E+01  3.1335E-01   2.6687E+01  0.000E+00  0.000E+00  0.000E+00  1.07861E+03  1.207E+00  1.342E+01  7.448E-02  1.402E+00
   1    4    5     2     1    2.4687E+01  3.2711E-01   2.4360E+01  0.000E+00  0.000E+00  0.000E+00  1.07313E+03  1.194E+00  1.200E+01  7.800E-02  1.398E+00
   1    5    6     2     2    2.4360E+01  2.5111E-01   2.4109E+01  0.000E+00  0.000E+00  0.000E+00  1.06769E+03  1.185E+00  1.200E+01  6.000E-02  1.395E+00
   1    6    6     2     3    2.4109E+01  2.5067E-01   2.3858E+01  0.000E+00  0.000E+00  0.000E+00  1.06297E+03  1.178E+00  1.200E+01  6.000E-02  1.393E+00
   1    7    6     2     4    2.3858E+01  2.5023E-01   2.3608E+01  0.000E+00  0.000E+00  0.000E+00  1.05825E+03  1.170E+00  1.200E+01  6.000E-02  1.390E+00
   1    8    6     2     5    2.3608E+01  2.4978E-01   2.3358E+01  0.000E+00  0.000E+00  0.000E+00  1.05352E+03  1.163E+00  1.200E+01  6.000E-02  1.388E+00
   1    3    5     3     1    2.0000E+00  2.8252E-01   1.7175E+00  0.000E+00  0.000E+00  0.000E+00  1.07555E+03  1.909E+00  9.636E+00  7.227E-02  1.955E+00
   1    3    6     3     2    1.7175E+00  2.4905E-01   1.4684E+00  0.000E+00  0.000E+00  0.000E+00  1.07264E+03  1.727E+00  8.909E+00  6.682E-02  1.864E+00
   1    3    7     3     3    1.4684E+00  1.9718E-01   1.2712E+00  0.000E+00  0.000E+00  0.000E+00  1.06987E+03  1.555E+00  8.218E+00  5.547E-02  1.777E+00
   1    4    8     3     4    1.2712E+00  2.2567E-01   1.0456E+00  0.000E+00  0.000E+00  0.000E+00  1.06682E+03  1.364E+00  7.455E+00  6.709E-02  1.682E+00
   1    5    8     3     5    1.0456E+00  1.5790E-01   8.8768E-01  0.000E+00  0.000E+00  0.000E+00  1.06362E+03  1.164E+00  6.655E+00  4.991E-02  1.582E+00
   1    6    8     3     6    8.8768E-01  5.5980E-02   8.3170E-01  0.000E+00  0.000E+00  0.000E+00  1.06158E+03  1.036E+00  6.145E+00  1.844E-02  1.518E+00
   1    5   10     4     1    1.0000E+01  9.0919E-02   9.9091E+00  0.000E+00  0.000E+00  0.000E+00  1.07836E+03  6.368E-01  1.000E+01  2.500E-02  1.212E+00
   1    5    9     4     2    9.9091E+00  1.8158E-01   9.7275E+00  0.000E+00  0.000E+00  0.000E+00  1.07154E+03  6.315E-01  1.000E+01  5.000E-02  1.211E+00
   1    6    8     4     3    9.7275E+00  1.2689E-01   9.6006E+00  0.000E+00  0.000E+00  0.000E+00  1.06381E+03  6.256E-01  1.000E+01  3.500E-02  1.209E+00
   1    6    8     5     1    1.0432E+01  2.2686E-01   1.0205E+01  0.000E+00  0.000E+00  0.000E+00  1.05868E+03  6.790E-01  1.542E+01  6.166E-02  1.226E+00
   1    7    7     5     2    1.0205E+01  2.7894E-01   9.9265E+00  0.000E+00  0.000E+00  0.000E+00  1.05417E+03  6.732E-01  1.519E+01  7.594E-02  1.224E+00
   1    8    7     5     3    9.9265E+00  1.9221E-01   9.7343E+00  0.000E+00  0.000E+00  0.000E+00  1.04992E+03  6.676E-01  1.497E+01  5.241E-02  1.223E+00
   1    8    6     5     4    9.7343E+00  1.3577E-01   9.5985E+00  0.000E+00  0.000E+00  0.000E+00  1.04691E+03  6.637E-01  1.482E+01  3.706E-02  1.221E+00
   1    9    6     6     1    3.2957E+01  2.6627E-01   3.2691E+01  0.000E+00  0.000E+00  0.000E+00  1.04417E+03  1.438E+00  1.200E+01  6.000E-02  1.479E+00
   1   10    7     6     2    3.2691E+01  2.6584E-01   3.2425E+01  0.000E+00  0.000E+00  0.000E+00  1.03961E+03  1.431E+00  1.200E+01  6.000E-02  1.477E+00
   1   11    7     6     3    3.2425E+01  2.6542E-01   3.2159E+01  0.000E+00  0.000E+00  0.000E+00  1.03506E+03  1.424E+00  1.200E+01  6.000E-02  1.475E+00
   1   12    7     6     4    3.2159E+01  2.6500E-01   3.1894E+01  0.000E+00  0.000E+00  0.000E+00  1.03051E+03  1.417E+00  1.200E+01  6.000E-02  1.472E+00
   1   13    7     6     5    3.1894E+01  4.2453E-03   3.1890E+01  0.000E+00  0.000E+00  0.000E+00  1.02732E+03  1.413E+00  1.200E+01  2.400E-02  5.896E-02
   1   14    9     7     1    1.5000E+02  1.3359E+00   1.4866E+02  0.000E+00  0.000E+00  0.000E+00  1.03987E+03  2.288E+00  5.529E+01  5.593E-01  7.962E-01
   1   13    8     7     2    1.4866E+02  1.8246E+00   1.4684E+02  0.000E+00  0.000E+00  0.000E+00  1.03478E+03  2.279E+00  5.526E+01  6.148E-01  9.893E-01
   1   13    7     7     3    1.4684E+02  1.4211E+00   1.4542E+02  0.000E+00  0.000E+00  0.000E+00  1.02969E+03  2.271E+00  5.522E+01  5.585E-01  8.482E-01
   1   13    6     8     1    1.7731E+02  8.8079E-01   1.7643E+02  0.000E+00  0.000E+00  0.000E+00  1.02487E+03  2.996E+00  4.345E+01  4.427E-01  6.631E-01
   1   13    5     8     2    1.7643E+02  1.1734E-01   1.7631E+02  0.000E+00  0.000E+00  0.000E+00  1.01862E+03  2.993E+00  4.340E+01  4.423E-01  8.843E-02
   1   13    4     8     3    1.7631E+02 -2.8613E+00   1.7917E+02  0.000E+00  0.000E+00  0.000E+00  1.01238E+03  3.002E+00  4.353E+01  4.436E+00 -2.150E-01
   1   13    3     8     4    1.7917E+02 -4.0022E+00   1.8317E+02  0.000E+00  0.000E+00  0.000E+00  1.00615E+03  3.024E+00  4.384E+01  4.468E+00 -2.986E-01
   1   13    2     8     5    1.8317E+02 -2.9497E+00   1.8612E+02  0.000E+00  0.000E+00  0.000E+00  9.99920E+02  3.045E+00  4.415E+01  4.500E+00 -2.185E-01
   1   13    1     8     6    1.8612E+02 -2.2204E+00   1.8834E+02  0.000E+00  0.000E+00  0.000E+00  9.94936E+02  3.061E+00  4.439E+01  2.714E+00 -2.727E-01



 UBDSV3 SAVING "           GW ET" ON UNIT  61 AT TIME STEP 10, STRESS PERIOD   5
 UBDSV3 SAVING "    UZF RECHARGE" ON UNIT  61 AT TIME STEP 10, STRESS PERIOD   5
 UBDSV3 SAVING " SURFACE LEAKAGE" ON UNIT  61 AT TIME STEP 10, STRESS PERIOD   5
 UBDSV3 SAVING "       HORT+DUNN" ON UNIT  61 AT TIME STEP 10, STRESS PERIOD   5
 UBDSV3 SAVING "  STORAGE CHANGE" ON UNIT  61 AT TIME STEP 10, STRESS PERIOD   5


UNSATURATED ZONE PACKAGE VOLUMETRIC BUDGET FOR  TIME STEP    10 STRESS PERIOD    5
  ------------------------------------------------------------------------------



     CUMULATIVE VOLUMES      L**3       RATES FOR THIS TIME STEP      L**3/T
     ------------------                 ------------------------

           IN:                                      IN:
           ---                                      ---
        INFILTRATION =    60057324.0000          INFILTRATION =          60.8475

          OUT:                                     OUT:
          ----                                     ----
              UZF ET =     1154028.1473                UZF ET =           1.5630
        UZF RECHARGE =     4554601.2900          UZF RECHARGE =           0.2685

            IN - OUT =    54348694.5627              IN - OUT =          59.0160

          STORAGE:                                 STORAGE:
          --------                                 --------
      STORAGE CHANGE =    54348695.6294        STORAGE CHANGE =          59.0160

 PERCENT DISCREPANCY IS DIFFERENCE BETWEEN IN-OUT MINUS CHANGE IN STORAGE
 DIVIDED BY THE AVERAGE OF IN AND OUT TIMES 100

 PERCENT DISCREPANCY =           0.00     PERCENT DISCREPANCY =           0.00






 

            AWU WELLS     PERIOD    5   STEP  10
 AWU WELL      1   LAYER   1   ROW     6   COL     4   RATE    -10.0000    
 AWU WELL      2   LAYER   1   ROW     6   COL     5   RATE    -10.0000    
 AWU WELL      3   LAYER   1   ROW     7   COL     4   RATE    -10.0000    
 AWU WELL      4   LAYER   1   ROW     7   COL     5   RATE    -10.0000    
 AWU WELL      5   LAYER   1   ROW     8   COL     4   RATE    -10.0000    
 AWU WELL      6   LAYER   1   ROW     8   COL     5   RATE    -10.0000    
 
 

        GW IRRIGATION     PERIOD    5   STEP  10
 AWU WELL      1   ROW     6   COL     4   RATE     10.0000    
 AWU WELL      2   ROW     6   COL     5   RATE     10.0000    
 AWU WELL      3   ROW     7   COL     4   RATE     10.0000    
 AWU WELL      4   ROW     7   COL     5   RATE     10.0000    
 AWU WELL      5   ROW     8   COL     4   RATE     10.0000    
 AWU WELL      6   ROW     8   COL     5   RATE     10.0000    
 
1
  VOLUMETRIC BUDGET FOR ENTIRE MODEL AT END OF TIME STEP   10, STRESS PERIOD   5
  ------------------------------------------------------------------------------

     CUMULATIVE VOLUMES      L**3       RATES FOR THIS TIME STEP      L**3/T
     ------------------                 ------------------------

           IN:                                      IN:
           ---                                      ---
               AWU WELLS =    52560000.0000                 AWU WELLS =          60.0000
      DIVERSION SEGMENTS =           0.0000        DIVERSION SEGMENTS =           0.0000
           GW IRRIGATION =           0.0000             GW IRRIGATION =           0.0000
           SW IRRIGATION =           0.0000             SW IRRIGATION =           0.0000
        SYSTEM LOSSES GW =           0.0000          SYSTEM LOSSES GW =           0.0000
        SYSTEM LOSSES SW =           0.0000          SYSTEM LOSSES SW =           0.0000

                TOTAL IN =    52560000.0000                  TOTAL IN =          60.0000

          OUT:                                     OUT:
          ----                                     ----
               AWU WELLS =           0.0000                 AWU WELLS =           0.0000
      DIVERSION SEGMENTS =           0.0000        DIVERSION SEGMENTS =           0.0000
           GW IRRIGATION =    52560000.0000             GW IRRIGATION =          60.0000
           SW IRRIGATION =           0.0000             SW IRRIGATION =           0.0000
        SYSTEM LOSSES GW =           0.0000          SYSTEM LOSSES GW =           0.0000
        SYSTEM LOSSES SW =           0.0000          SYSTEM LOSSES SW =           0.0000

               TOTAL OUT =    52560000.0000                 TOTAL OUT =          60.0000

                IN - OUT =           0.0000                  IN - OUT =           0.0000

     PERCENT DISCREPANCY =           0.00         PERCENT DISCREPANCY =           0.00



1
  VOLUMETRIC BUDGET FOR ENTIRE MODEL AT END OF TIME STEP   10, STRESS PERIOD   5
  ------------------------------------------------------------------------------

     CUMULATIVE VOLUMES      L**3       RATES FOR THIS TIME STEP      L**3/T
     ------------------                 ------------------------

           IN:                                      IN:
           ---                                      ---
             STORAGE     =    58717028.0000               STORAGE     =          61.8246
       CONSTANT HEAD     =           0.0000         CONSTANT HEAD     =           0.0000
     HEAD DEP BOUNDS     =     2527945.2500       HEAD DEP BOUNDS     =           0.2858
      STREAM LEAKAGE     =   110000728.0000        STREAM LEAKAGE     =          11.6896
        UZF RECHARGE     =     4554601.0000          UZF RECHARGE     =           0.2685
               GW ET     =           0.0000                 GW ET     =           0.0000
     SURFACE LEAKAGE     =           0.0000       SURFACE LEAKAGE     =           0.0000
           AWU WELLS     =           0.0000             AWU WELLS     =           0.0000

                TOTAL IN =   175800304.0000                  TOTAL IN =          74.0685

          OUT:                                     OUT:
          ----                                     ----
             STORAGE     =    29598606.0000               STORAGE     =           1.2349
       CONSTANT HEAD     =           0.0000         CONSTANT HEAD     =           0.0000
     HEAD DEP BOUNDS     =     2581345.0000       HEAD DEP BOUNDS     =           0.2947
      STREAM LEAKAGE     =    90456024.0000        STREAM LEAKAGE     =          12.0336
        UZF RECHARGE     =           0.0000          UZF RECHARGE     =           0.0000
               GW ET     =      612175.0000                 GW ET     =           0.5052
     SURFACE LEAKAGE     =           0.0000       SURFACE LEAKAGE     =           0.0000
           AWU WELLS     =    52560000.0000             AWU WELLS     =          60.0000

               TOTAL OUT =   175808160.0000                 TOTAL OUT =          74.0685

                IN - OUT =       -7856.0000                  IN - OUT =           0.0000

     PERCENT DISCREPANCY =          -0.00         PERCENT DISCREPANCY =           0.00






         TIME SUMMARY AT END OF TIME STEP   10 IN STRESS PERIOD    5
                    SECONDS     MINUTES      HOURS       DAYS        YEARS
                    -----------------------------------------------------------
   TIME STEP LENGTH  87600.      1460.0      24.333      1.0139     2.77588E-03
 STRESS PERIOD TIME 8.76000E+05  14600.      243.33      10.139     2.77588E-02
         TOTAL TIME 8.84640E+06 1.47440E+05  2457.3      102.39     0.28033    
1
 
 SOLVING FOR HEAD 
                                                   Max.-Head-Change                         Max.-Flux-Residual
  Residual-Control   Outer-Iter.   Inner-Iter.     Column Row Layer    Maximum-Head-Change  Column Row Layer    Maximum-Flux-Residual          L2-NORM 
          0                 1           2             5    8     1       0.4181527965E-01       5    8    1         0.2300200564E+01      0.5187910808E+01
          0                 2           2             5    8     1      -0.4067455559E-02       5    8    1        -0.2300179528E+00      0.5179222592E+00
          0                 3           2             5    8     1       0.2769789371E-03       5    8    1         0.1610128355E-01      0.3623424703E-01
          0                 4           1             5    8     1      -0.1102124980E-04       5    8    1        -0.6585433202E-03      0.1484806386E-02

    ------------------------------------------------
       NWT REQUIRED            4 OUTER ITERATIONS 
       AND A TOTAL OF          7 INNER ITERATIONS.
    ------------------------------------------------

 NO OUTPUT CONTROL FOR STRESS PERIOD    5   TIME STEP   11
 
 SOLVING FOR HEAD 
                                                   Max.-Head-Change                         Max.-Flux-Residual
  Residual-Control   Outer-Iter.   Inner-Iter.     Column Row Layer    Maximum-Head-Change  Column Row Layer    Maximum-Flux-Residual          L2-NORM 
          0                 1           2             5    8     1       0.3956906720E-01       5    8    1         0.2174661452E+01      0.4951384895E+01
          0                 2           2             5    8     1      -0.3835672243E-02       5    8    1        -0.2163877086E+00      0.4936041815E+00
          0                 3           2             5    8     1       0.2611944294E-03       5    8    1         0.1514710308E-01      0.3453510708E-01
          0                 4           1             5    8     1      -0.1039317429E-04       5    8    1        -0.6195175849E-03      0.1415499173E-02

    ------------------------------------------------
       NWT REQUIRED            4 OUTER ITERATIONS 
       AND A TOTAL OF          7 INNER ITERATIONS.
    ------------------------------------------------

 NO OUTPUT CONTROL FOR STRESS PERIOD    5   TIME STEP   12
 
 SOLVING FOR HEAD 
                                                   Max.-Head-Change                         Max.-Flux-Residual
  Residual-Control   Outer-Iter.   Inner-Iter.     Column Row Layer    Maximum-Head-Change  Column Row Layer    Maximum-Flux-Residual          L2-NORM 
          0                 1           2             5    8     1       0.3754234476E-01       5    8    1         0.2058564453E+01      0.4731114176E+01
          0                 2           2             5    8     1      -0.3651904363E-02       5    8    1        -0.2058605258E+00      0.4722871470E+00
          0                 3           2             5    8     1       0.2486805825E-03       5    8    1         0.1441020441E-01      0.3304566678E-01
          0                 4           1             5    8     1      -0.9895235902E-05       5    8    1        -0.5893783555E-03      0.1354694918E-02

    ------------------------------------------------
       NWT REQUIRED            4 OUTER ITERATIONS 
       AND A TOTAL OF          7 INNER ITERATIONS.
    ------------------------------------------------

 NO OUTPUT CONTROL FOR STRESS PERIOD    5   TIME STEP   13
 
 SOLVING FOR HEAD 
                                                   Max.-Head-Change                         Max.-Flux-Residual
  Residual-Control   Outer-Iter.   Inner-Iter.     Column Row Layer    Maximum-Head-Change  Column Row Layer    Maximum-Flux-Residual          L2-NORM 
          0                 1           2             5    8     1       0.3563750215E-01       5    8    1         0.1952442030E+01      0.4526673293E+01
          0                 2           2             5    8     1      -0.3466608574E-02       5    8    1        -0.1952478140E+00      0.4518578333E+00
          0                 3           2             5    8     1       0.2360626909E-03       5    8    1         0.1366731871E-01      0.3161815557E-01
          0                 4           1             5    8     1      -0.9393157990E-05       5    8    1        -0.5589942714E-03      0.1296479545E-02

    ------------------------------------------------
       NWT REQUIRED            4 OUTER ITERATIONS 
       AND A TOTAL OF          7 INNER ITERATIONS.
    ------------------------------------------------

 NO OUTPUT CONTROL FOR STRESS PERIOD    5   TIME STEP   14
 
 SOLVING FOR HEAD 
                                                   Max.-Head-Change                         Max.-Flux-Residual
  Residual-Control   Outer-Iter.   Inner-Iter.     Column Row Layer    Maximum-Head-Change  Column Row Layer    Maximum-Flux-Residual          L2-NORM 
          0                 1           2             5    8     1       0.3385823321E-01       5    8    1         0.1853381387E+01      0.4335444717E+01
          0                 2           2             5    8     1      -0.3293528492E-02       5    8    1        -0.1853413372E+00      0.4327440855E+00
          0                 3           2             5    8     1       0.2242766358E-03       5    8    1         0.1297386895E-01      0.3028237729E-01
          0                 4           1             5    8     1      -0.8924179608E-05       5    8    1        -0.5306321227E-03      0.1242013441E-02

    ------------------------------------------------
       NWT REQUIRED            4 OUTER ITERATIONS 
       AND A TOTAL OF          7 INNER ITERATIONS.
    ------------------------------------------------

 NO OUTPUT CONTROL FOR STRESS PERIOD    5   TIME STEP   15
 
 SOLVING FOR HEAD 
                                                   Max.-Head-Change                         Max.-Flux-Residual
  Residual-Control   Outer-Iter.   Inner-Iter.     Column Row Layer    Maximum-Head-Change  Column Row Layer    Maximum-Flux-Residual          L2-NORM 
          0                 1           2             5    8     1       0.3219503598E-01       5    8    1         0.1760844426E+01      0.4156404895E+01
          0                 2           2             5    8     1      -0.3131739728E-02       5    8    1        -0.1760872783E+00      0.4148444288E+00
          0                 3           2             5    8     1       0.2132594701E-03       5    8    1         0.1232608795E-01      0.2903113847E-01
          0                 4           1             5    8     1      -0.8485796041E-05       5    8    1        -0.5041378265E-03      0.1190721014E-02

    ------------------------------------------------
       NWT REQUIRED            4 OUTER ITERATIONS 
       AND A TOTAL OF          7 INNER ITERATIONS.
    ------------------------------------------------

 NO OUTPUT CONTROL FOR STRESS PERIOD    5   TIME STEP   16
 
 SOLVING FOR HEAD 
                                                   Max.-Head-Change                         Max.-Flux-Residual
  Residual-Control   Outer-Iter.   Inner-Iter.     Column Row Layer    Maximum-Head-Change  Column Row Layer    Maximum-Flux-Residual          L2-NORM 
          0                 1           2             5    6     1       0.3067512571E-01       5    8    1         0.1674353925E+01      0.3988642467E+01
          0                 2           2             5    6     1      -0.2983837596E-02       5    8    1        -0.1674379090E+00      0.3980682514E+00
          0                 3           2             5    6     1       0.2031884502E-03       5    8    1         0.1172063488E-01      0.2785892197E-01
          0                 4           1             5    6     1      -0.8085039281E-05       5    8    1        -0.4793747330E-03      0.1143172875E-02

    ------------------------------------------------
       NWT REQUIRED            4 OUTER ITERATIONS 
       AND A TOTAL OF          7 INNER ITERATIONS.
    ------------------------------------------------

 NO OUTPUT CONTROL FOR STRESS PERIOD    5   TIME STEP   17
 
 SOLVING FOR HEAD 
                                                   Max.-Head-Change                         Max.-Flux-Residual
  Residual-Control   Outer-Iter.   Inner-Iter.     Column Row Layer    Maximum-Head-Change  Column Row Layer    Maximum-Flux-Residual          L2-NORM 
          0                 1           2             5    6     1       0.2926523372E-01       5    6    1         0.1595474502E+01      0.3831267410E+01
          0                 2           2             5    6     1      -0.2846694872E-02       5    6    1        -0.1595464436E+00      0.3823257142E+00
          0                 3           2             5    6     1       0.1938495247E-03       5    6    1         0.1116826539E-01      0.2675851508E-01
          0                 4           1             5    6     1      -0.7713435018E-05       5    6    1        -0.4567826245E-03      0.1098226521E-02

    ------------------------------------------------
       NWT REQUIRED            4 OUTER ITERATIONS 
       AND A TOTAL OF          7 INNER ITERATIONS.
    ------------------------------------------------

 NO OUTPUT CONTROL FOR STRESS PERIOD    5   TIME STEP   18
 
 SOLVING FOR HEAD 
                                                   Max.-Head-Change                         Max.-Flux-Residual
  Residual-Control   Outer-Iter.   Inner-Iter.     Column Row Layer    Maximum-Head-Change  Column Row Layer    Maximum-Flux-Residual          L2-NORM 
          0                 1           2             5    6     1       0.2794121625E-01       5    6    1         0.1522151317E+01      0.3683527242E+01
          0                 2           2             5    6     1      -0.2717905230E-02       5    6    1        -0.1522142063E+00      0.3675458410E+00
          0                 3           2             5    6     1       0.1850794170E-03       5    6    1         0.1065500780E-01      0.2572543152E-01
          0                 4           1             5    6     1      -0.7364464841E-05       5    6    1        -0.4357903852E-03      0.1056156682E-02

    ------------------------------------------------
       NWT REQUIRED            4 OUTER ITERATIONS 
       AND A TOTAL OF          7 INNER ITERATIONS.
    ------------------------------------------------

 NO OUTPUT CONTROL FOR STRESS PERIOD    5   TIME STEP   19
 
 SOLVING FOR HEAD 
                                                   Max.-Head-Change                         Max.-Flux-Residual
  Residual-Control   Outer-Iter.   Inner-Iter.     Column Row Layer    Maximum-Head-Change  Column Row Layer    Maximum-Flux-Residual          L2-NORM 
          0                 1           2             5    6     1       0.2669690976E-01       5    6    1         0.1453284036E+01      0.3544687496E+01
          0                 2           2             5    6     1      -0.2596869092E-02       5    6    1        -0.1453275524E+00      0.3536588131E+00
          0                 3           2             5    6     1       0.1768372935E-03       5    6    1         0.1017294112E-01      0.2475472135E-01
          0                 4           1             5    6     1      -0.7036503839E-05       5    6    1        -0.4160738465E-03      0.1016514257E-02

    ------------------------------------------------
       NWT REQUIRED            4 OUTER ITERATIONS 
       AND A TOTAL OF          7 INNER ITERATIONS.
    ------------------------------------------------

 NO OUTPUT CONTROL FOR STRESS PERIOD    5   TIME STEP   20
 
 SOLVING FOR HEAD 
                                                   Max.-Head-Change                         Max.-Flux-Residual
  Residual-Control   Outer-Iter.   Inner-Iter.     Column Row Layer    Maximum-Head-Change  Column Row Layer    Maximum-Flux-Residual          L2-NORM 
          0                 1           2             5    6     1       0.2552692327E-01       5    6    1         0.1388569425E+01      0.3414088550E+01
          0                 2           2             5    6     1      -0.2483062254E-02       5    6    1        -0.1388561590E+00      0.3405951688E+00
          0                 3           2             5    6     1       0.1690874590E-03       5    6    1         0.9719942732E-02      0.2384130259E-01
          0                 4           1             5    6     1      -0.6728130647E-05       5    6    1        -0.3975461723E-03      0.9791722425E-03

    ------------------------------------------------
       NWT REQUIRED            4 OUTER ITERATIONS 
       AND A TOTAL OF          7 INNER ITERATIONS.
    ------------------------------------------------

 NO OUTPUT CONTROL FOR STRESS PERIOD    5   TIME STEP   21
 
 SOLVING FOR HEAD 
                                                   Max.-Head-Change                         Max.-Flux-Residual
  Residual-Control   Outer-Iter.   Inner-Iter.     Column Row Layer    Maximum-Head-Change  Column Row Layer    Maximum-Flux-Residual          L2-NORM 
          0                 1           2             5    6     1       0.2442599316E-01       5    6    1         0.1327711165E+01      0.3291116373E+01
          0                 2           2             5    6     1      -0.2375972587E-02       5    6    1        -0.1327703949E+00      0.3282924726E+00
          0                 3           2             5    6     1       0.1617950405E-03       5    6    1         0.9293938484E-02      0.2298120821E-01
          0                 4           1             5    6     1      -0.6437958899E-05       5    6    1        -0.3801225760E-03      0.9440620277E-03

    ------------------------------------------------
       NWT REQUIRED            4 OUTER ITERATIONS 
       AND A TOTAL OF          7 INNER ITERATIONS.
    ------------------------------------------------

 NO OUTPUT CONTROL FOR STRESS PERIOD    5   TIME STEP   22
 
 SOLVING FOR HEAD 
                                                   Max.-Head-Change                         Max.-Flux-Residual
  Residual-Control   Outer-Iter.   Inner-Iter.     Column Row Layer    Maximum-Head-Change  Column Row Layer    Maximum-Flux-Residual          L2-NORM 
          0                 1           2             5    6     1       0.2338957360E-01       5    6    1         0.1270452722E+01      0.3175243242E+01
          0                 2           2             5    6     1      -0.2275157978E-02       5    6    1        -0.1270446071E+00      0.3167046014E+00
          0                 3           2             5    6     1       0.1549299308E-03       5    6    1         0.8893132630E-02      0.2217086877E-01
          0                 4           1             5    6     1      -0.6164790806E-05       5    6    1        -0.3637296245E-03      0.9108432338E-03

    ------------------------------------------------
       NWT REQUIRED            4 OUTER ITERATIONS 
       AND A TOTAL OF          7 INNER ITERATIONS.
    ------------------------------------------------

 NO OUTPUT CONTROL FOR STRESS PERIOD    5   TIME STEP   23
 
 SOLVING FOR HEAD 
                                                   Max.-Head-Change                         Max.-Flux-Residual
  Residual-Control   Outer-Iter.   Inner-Iter.     Column Row Layer    Maximum-Head-Change  Column Row Layer    Maximum-Flux-Residual          L2-NORM 
          0                 1           2             5    6     1       0.2241317446E-01       5    6    1         0.1216541637E+01      0.3065921829E+01
          0                 2           2             5    6     1      -0.2180181730E-02       5    6    1        -0.1216535505E+00      0.3057599067E+00
          0                 3           2             5    6     1       0.1484623920E-03       5    6    1         0.8515758019E-02      0.2140574675E-01
          0                 4           1             5    6     1      -0.5907441015E-05       5    6    1        -0.3482949412E-03      0.8799583746E-03

    ------------------------------------------------
       NWT REQUIRED            4 OUTER ITERATIONS 
       AND A TOTAL OF          7 INNER ITERATIONS.
    ------------------------------------------------

 NO OUTPUT CONTROL FOR STRESS PERIOD    5   TIME STEP   24
 
 SOLVING FOR HEAD 
                                                   Max.-Head-Change                         Max.-Flux-Residual
  Residual-Control   Outer-Iter.   Inner-Iter.     Column Row Layer    Maximum-Head-Change  Column Row Layer    Maximum-Flux-Residual          L2-NORM 
          0                 1           2             5    6     1       0.2149292796E-01       5    6    1         0.1165761501E+01      0.2962695230E+01
          0                 2           2             5    6     1      -0.2090667539E-02       5    6    1        -0.1165755843E+00      0.2954232671E+00
          0                 3           2             5    6     1       0.1423668004E-03       5    6    1         0.8160299789E-02      0.2068264527E-01
          0                 4           1             5    6     1      -0.5664892719E-05       5    6    1        -0.3337567107E-03      0.8500300184E-03

    ------------------------------------------------
       NWT REQUIRED            4 OUTER ITERATIONS 
       AND A TOTAL OF          7 INNER ITERATIONS.
    ------------------------------------------------

 NO OUTPUT CONTROL FOR STRESS PERIOD    5   TIME STEP   25
 
 SOLVING FOR HEAD 
                                                   Max.-Head-Change                         Max.-Flux-Residual
  Residual-Control   Outer-Iter.   Inner-Iter.     Column Row Layer    Maximum-Head-Change  Column Row Layer    Maximum-Flux-Residual          L2-NORM 
          0                 1           2             5    6     1       0.2062498792E-01       5    6    1         0.1117895046E+01      0.2865157948E+01
          0                 2           2             5    6     1      -0.2006241281E-02       5    6    1        -0.1117889822E+00      0.2856554686E+00
          0                 3           2             5    6     1       0.1366176782E-03       5    6    1         0.7825237072E-02      0.1999954011E-01
          0                 4           1             5    6     1      -0.5436130263E-05       5    6    1        -0.3200526239E-03      0.8221609257E-03

    ------------------------------------------------
       NWT REQUIRED            4 OUTER ITERATIONS 
       AND A TOTAL OF          7 INNER ITERATIONS.
    ------------------------------------------------

 NO OUTPUT CONTROL FOR STRESS PERIOD    5   TIME STEP   26
 
 SOLVING FOR HEAD 
                                                   Max.-Head-Change                         Max.-Flux-Residual
  Residual-Control   Outer-Iter.   Inner-Iter.     Column Row Layer    Maximum-Head-Change  Column Row Layer    Maximum-Flux-Residual          L2-NORM 
          0                 1           2             5    6     1       0.1980608488E-01       5    6    1         0.1072759281E+01      0.2772883099E+01
          0                 2           2             5    6     1      -0.1926584935E-02       5    6    1        -0.1072754455E+00      0.2764131839E+00
          0                 3           2             5    6     1       0.1311933701E-03       5    6    1         0.7509288996E-02      0.1935328954E-01
          0                 4           1             5    6     1      -0.5220292031E-05       5    6    1        -0.3071303317E-03      0.7960035119E-03

    ------------------------------------------------
       NWT REQUIRED            4 OUTER ITERATIONS 
       AND A TOTAL OF          7 INNER ITERATIONS.
    ------------------------------------------------

 NO OUTPUT CONTROL FOR STRESS PERIOD    5   TIME STEP   27
 
 SOLVING FOR HEAD 
                                                   Max.-Head-Change                         Max.-Flux-Residual
  Residual-Control   Outer-Iter.   Inner-Iter.     Column Row Layer    Maximum-Head-Change  Column Row Layer    Maximum-Flux-Residual          L2-NORM 
          0                 1           2             5    6     1       0.1903289999E-01       5    6    1         0.1030167976E+01      0.2685524189E+01
          0                 2           2             5    6     1      -0.1851375668E-02       5    6    1        -0.1030163515E+00      0.2676595993E+00
          0                 3           2             5    6     1       0.1260718921E-03       5    6    1         0.7211151947E-02      0.1874093088E-01
          0                 4           1             5    6     1      -0.5016504205E-05       5    6    1        -0.2949365082E-03      0.7707175826E-03

    ------------------------------------------------
       NWT REQUIRED            4 OUTER ITERATIONS 
       AND A TOTAL OF          7 INNER ITERATIONS.
    ------------------------------------------------

 NO OUTPUT CONTROL FOR STRESS PERIOD    5   TIME STEP   28
 
 SOLVING FOR HEAD 
                                                   Max.-Head-Change                         Max.-Flux-Residual
  Residual-Control   Outer-Iter.   Inner-Iter.     Column Row Layer    Maximum-Head-Change  Column Row Layer    Maximum-Flux-Residual          L2-NORM 
          0                 1           2             5    6     1       0.1830597244E-01       5    6    1         0.9899323378E+00      0.2593305569E+01
          0                 2           2             5    6     1      -0.1780666162E-02       5    6    1        -0.9899283749E-01      0.2578606360E+00
          0                 3           2             5    6     1       0.1212568295E-03       5    6    1         0.6929505378E-02      0.1805848725E-01
          0                 4           1             5    6     1      -0.4824909083E-05       5    6    1        -0.2834171476E-03      0.7432269244E-03

    ------------------------------------------------
       NWT REQUIRED            4 OUTER ITERATIONS 
       AND A TOTAL OF          7 INNER ITERATIONS.
    ------------------------------------------------

 NO OUTPUT CONTROL FOR STRESS PERIOD    5   TIME STEP   29
 
 SOLVING FOR HEAD 
                                                   Max.-Head-Change                         Max.-Flux-Residual
  Residual-Control   Outer-Iter.   Inner-Iter.     Column Row Layer    Maximum-Head-Change  Column Row Layer    Maximum-Flux-Residual          L2-NORM 
          0                 1           2             4   13     1       0.2600528566E-01       4   13    1         0.1508068204E+01      0.3616590801E+01
          0                 2           2             4   13     1      -0.2501248823E-02       4   13    1        -0.1491476314E+00      0.3484915473E+00
          0                 3           2             4   13     1       0.1676912719E-03       4   13    1         0.1028097994E-01      0.2384515078E-01
          0                 4           1             4   13     1      -0.6492041585E-05       4   13    1        -0.4093069556E-03      0.9446983484E-03

    ------------------------------------------------
       NWT REQUIRED            4 OUTER ITERATIONS 
       AND A TOTAL OF          7 INNER ITERATIONS.
    ------------------------------------------------

 NO OUTPUT CONTROL FOR STRESS PERIOD    5   TIME STEP   30



 STREAM LISTING     PERIOD      5   STEP       30

 LAYER ROW COL. STREAM  RCH.  FLOW INTO     FLOW TO   FLOW OUT OF   OVRLND.     DIRECT     STREAM       STREAM     STREAM     STREAM   STREAMBED  STREAMBED
                SEG.NO.  NO.  STRM. RCH.    AQUIFER    STRM. RCH.    RUNOFF     PRECIP       ET          HEAD       DEPTH      WIDTH   CONDCTNC.   GRADIENT

   1    1    1     1     1    9.9000E+01  4.7281E-01   9.8527E+01  0.000E+00  0.000E+00  0.000E+00  1.09484E+03  1.796E+00  2.191E+01  9.859E-02  1.599E+00
   1    2    2     1     2    9.8527E+01  7.3365E-01   9.7794E+01  0.000E+00  0.000E+00  0.000E+00  1.08985E+03  1.793E+00  2.187E+01  1.531E-01  1.598E+00
   1    3    3     1     3    9.7794E+01  6.2707E-01   9.7166E+01  0.000E+00  0.000E+00  0.000E+00  1.08421E+03  1.791E+00  2.181E+01  1.309E-01  1.597E+00
   1    3    4     1     4    9.7166E+01  5.7859E-01   9.6588E+01  0.000E+00  0.000E+00  0.000E+00  1.07920E+03  1.789E+00  2.177E+01  1.208E-01  1.596E+00
   1    4    5     2     1    9.4588E+01  4.4299E-01   9.4145E+01  0.000E+00  0.000E+00  0.000E+00  1.07461E+03  2.679E+00  1.200E+01  7.800E-02  1.893E+00
   1    5    6     2     2    9.4145E+01  3.4036E-01   9.3805E+01  0.000E+00  0.000E+00  0.000E+00  1.06918E+03  2.673E+00  1.200E+01  6.000E-02  1.891E+00
   1    6    6     2     3    9.3805E+01  3.4001E-01   9.3465E+01  0.000E+00  0.000E+00  0.000E+00  1.06446E+03  2.667E+00  1.200E+01  6.000E-02  1.889E+00
   1    7    6     2     4    9.3465E+01  3.3967E-01   9.3125E+01  0.000E+00  0.000E+00  0.000E+00  1.05974E+03  2.661E+00  1.200E+01  6.000E-02  1.887E+00
   1    8    6     2     5    9.3125E+01  3.3932E-01   9.2786E+01  0.000E+00  0.000E+00  0.000E+00  1.05501E+03  2.655E+00  1.200E+01  6.000E-02  1.885E+00
   1    3    5     3     1    2.0000E+00  2.8252E-01   1.7175E+00  0.000E+00  0.000E+00  0.000E+00  1.07555E+03  1.909E+00  9.636E+00  7.227E-02  1.955E+00
   1    3    6     3     2    1.7175E+00  2.4905E-01   1.4684E+00  0.000E+00  0.000E+00  0.000E+00  1.07264E+03  1.727E+00  8.909E+00  6.682E-02  1.864E+00
   1    3    7     3     3    1.4684E+00  1.9718E-01   1.2712E+00  0.000E+00  0.000E+00  0.000E+00  1.06987E+03  1.555E+00  8.218E+00  5.547E-02  1.777E+00
   1    4    8     3     4    1.2712E+00  2.2567E-01   1.0456E+00  0.000E+00  0.000E+00  0.000E+00  1.06682E+03  1.364E+00  7.455E+00  6.709E-02  1.682E+00
   1    5    8     3     5    1.0456E+00  1.5790E-01   8.8768E-01  0.000E+00  0.000E+00  0.000E+00  1.06362E+03  1.164E+00  6.655E+00  4.991E-02  1.582E+00
   1    6    8     3     6    8.8768E-01  5.5980E-02   8.3170E-01  0.000E+00  0.000E+00  0.000E+00  1.06158E+03  1.036E+00  6.145E+00  1.844E-02  1.518E+00
   1    5   10     4     1    1.0000E+01  9.0919E-02   9.9091E+00  0.000E+00  0.000E+00  0.000E+00  1.07836E+03  6.368E-01  1.000E+01  2.500E-02  1.212E+00
   1    5    9     4     2    9.9091E+00  1.8158E-01   9.7275E+00  0.000E+00  0.000E+00  0.000E+00  1.07154E+03  6.315E-01  1.000E+01  5.000E-02  1.211E+00
   1    6    8     4     3    9.7275E+00  1.2689E-01   9.6006E+00  0.000E+00  0.000E+00  0.000E+00  1.06381E+03  6.256E-01  1.000E+01  3.500E-02  1.209E+00
   1    6    8     5     1    1.0432E+01  2.2686E-01   1.0205E+01  0.000E+00  0.000E+00  0.000E+00  1.05868E+03  6.790E-01  1.542E+01  6.166E-02  1.226E+00
   1    7    7     5     2    1.0205E+01  2.7894E-01   9.9265E+00  0.000E+00  0.000E+00  0.000E+00  1.05417E+03  6.732E-01  1.519E+01  7.594E-02  1.224E+00
   1    8    7     5     3    9.9265E+00  1.9221E-01   9.7343E+00  0.000E+00  0.000E+00  0.000E+00  1.04992E+03  6.676E-01  1.497E+01  5.241E-02  1.223E+00
   1    8    6     5     4    9.7343E+00  1.3577E-01   9.5985E+00  0.000E+00  0.000E+00  0.000E+00  1.04691E+03  6.637E-01  1.482E+01  3.706E-02  1.221E+00
   1    9    6     6     1    1.0238E+02  3.5054E-01   1.0203E+02  0.000E+00  0.000E+00  0.000E+00  1.04557E+03  2.842E+00  1.200E+01  6.000E-02  1.947E+00
   1   10    7     6     2    1.0203E+02  3.5018E-01   1.0168E+02  0.000E+00  0.000E+00  0.000E+00  1.04102E+03  2.836E+00  1.200E+01  6.000E-02  1.945E+00
   1   11    7     6     3    1.0168E+02  3.4983E-01   1.0133E+02  0.000E+00  0.000E+00  0.000E+00  1.03647E+03  2.831E+00  1.200E+01  6.000E-02  1.944E+00
   1   12    7     6     4    1.0133E+02  3.4948E-01   1.0098E+02  0.000E+00  0.000E+00  0.000E+00  1.03192E+03  2.825E+00  1.200E+01  6.000E-02  1.942E+00
   1   13    7     6     5    1.0098E+02  3.7992E-02   1.0095E+02  0.000E+00  0.000E+00  0.000E+00  1.02873E+03  2.821E+00  1.200E+01  2.400E-02  5.277E-01
   1   14    9     7     1    1.5000E+02  1.3357E+00   1.4866E+02  0.000E+00  0.000E+00  0.000E+00  1.03987E+03  2.288E+00  5.529E+01  5.593E-01  7.960E-01
   1   13    8     7     2    1.4866E+02  1.8216E+00   1.4684E+02  0.000E+00  0.000E+00  0.000E+00  1.03478E+03  2.279E+00  5.526E+01  6.148E-01  9.877E-01
   1   13    7     7     3    1.4684E+02  1.4199E+00   1.4542E+02  0.000E+00  0.000E+00  0.000E+00  1.02969E+03  2.271E+00  5.522E+01  5.585E-01  8.475E-01
   1   13    6     8     1    2.4637E+02  1.2018E+00   2.4517E+02  0.000E+00  0.000E+00  0.000E+00  1.02526E+03  3.390E+00  4.915E+01  5.009E-01  7.998E-01
   1   13    5     8     2    2.4517E+02  3.4516E-01   2.4482E+02  0.000E+00  0.000E+00  0.000E+00  1.01901E+03  3.386E+00  4.909E+01  5.003E-01  2.300E-01
   1   13    4     8     3    2.4482E+02 -1.1355E+00   2.4596E+02  0.000E+00  0.000E+00  0.000E+00  1.01276E+03  3.388E+00  4.912E+01  5.006E+00 -7.561E-02
   1   13    3     8     4    2.4596E+02 -2.4207E+00   2.4838E+02  0.000E+00  0.000E+00  0.000E+00  1.00652E+03  3.397E+00  4.926E+01  5.019E+00 -1.608E-01
   1   13    2     8     5    2.4838E+02 -1.2348E+00   2.4961E+02  0.000E+00  0.000E+00  0.000E+00  1.00028E+03  3.406E+00  4.939E+01  5.033E+00 -8.177E-02
   1   13    1     8     6    2.4961E+02 -1.2122E+00   2.5083E+02  0.000E+00  0.000E+00  0.000E+00  9.95288E+02  3.413E+00  4.948E+01  3.026E+00 -1.335E-01





UNSATURATED ZONE PACKAGE VOLUMETRIC BUDGET FOR  TIME STEP    30 STRESS PERIOD    5
  ------------------------------------------------------------------------------



     CUMULATIVE VOLUMES      L**3       RATES FOR THIS TIME STEP      L**3/T
     ------------------                 ------------------------

           IN:                                      IN:
           ---                                      ---
        INFILTRATION =    61542144.0000          INFILTRATION =           0.8475

          OUT:                                     OUT:
          ----                                     ----
              UZF ET =     3749461.7979                UZF ET =           1.5275
        UZF RECHARGE =     4952111.1765          UZF RECHARGE =           0.3465

            IN - OUT =    52840571.0256              IN - OUT =          -1.0265

          STORAGE:                                 STORAGE:
          --------                                 --------
      STORAGE CHANGE =    52849301.8447        STORAGE CHANGE =          -1.0265

 PERCENT DISCREPANCY IS DIFFERENCE BETWEEN IN-OUT MINUS CHANGE IN STORAGE
 DIVIDED BY THE AVERAGE OF IN AND OUT TIMES 100

 PERCENT DISCREPANCY =          -0.00     PERCENT DISCREPANCY =           0.00






1
  VOLUMETRIC BUDGET FOR ENTIRE MODEL AT END OF TIME STEP   30, STRESS PERIOD   5
  ------------------------------------------------------------------------------

     CUMULATIVE VOLUMES      L**3       RATES FOR THIS TIME STEP      L**3/T
     ------------------                 ------------------------

           IN:                                      IN:
           ---                                      ---
               AWU WELLS =    52560000.0000                 AWU WELLS =           0.0000
      DIVERSION SEGMENTS =           0.0000        DIVERSION SEGMENTS =           0.0000
           GW IRRIGATION =           0.0000             GW IRRIGATION =           0.0000
           SW IRRIGATION =           0.0000             SW IRRIGATION =           0.0000
        SYSTEM LOSSES GW =           0.0000          SYSTEM LOSSES GW =           0.0000
        SYSTEM LOSSES SW =           0.0000          SYSTEM LOSSES SW =           0.0000

                TOTAL IN =    52560000.0000                  TOTAL IN =           0.0000

          OUT:                                     OUT:
          ----                                     ----
               AWU WELLS =           0.0000                 AWU WELLS =           0.0000
      DIVERSION SEGMENTS =           0.0000        DIVERSION SEGMENTS =           0.0000
           GW IRRIGATION =    52560000.0000             GW IRRIGATION =           0.0000
           SW IRRIGATION =           0.0000             SW IRRIGATION =           0.0000
        SYSTEM LOSSES GW =           0.0000          SYSTEM LOSSES GW =           0.0000
        SYSTEM LOSSES SW =           0.0000          SYSTEM LOSSES SW =           0.0000

               TOTAL OUT =    52560000.0000                 TOTAL OUT =           0.0000

                IN - OUT =           0.0000                  IN - OUT =           0.0000

     PERCENT DISCREPANCY =           0.00         PERCENT DISCREPANCY =           0.00



1
  VOLUMETRIC BUDGET FOR ENTIRE MODEL AT END OF TIME STEP   30, STRESS PERIOD   5
  ------------------------------------------------------------------------------

     CUMULATIVE VOLUMES      L**3       RATES FOR THIS TIME STEP      L**3/T
     ------------------                 ------------------------

           IN:                                      IN:
           ---                                      ---
             STORAGE     =    72567648.0000               STORAGE     =           4.5803
       CONSTANT HEAD     =           0.0000         CONSTANT HEAD     =           0.0000
     HEAD DEP BOUNDS     =     3028591.5000       HEAD DEP BOUNDS     =           0.2858
      STREAM LEAKAGE     =   130751568.0000        STREAM LEAKAGE     =          14.1781
        UZF RECHARGE     =     4952111.0000          UZF RECHARGE     =           0.3465
               GW ET     =           0.0000                 GW ET     =           0.0000
     SURFACE LEAKAGE     =           0.0000       SURFACE LEAKAGE     =           0.0000
           AWU WELLS     =           0.0000             AWU WELLS     =           0.0000

                TOTAL IN =   211299920.0000                  TOTAL IN =          19.3906

          OUT:                                     OUT:
          ----                                     ----
             STORAGE     =    44327652.0000               STORAGE     =          12.5941
       CONSTANT HEAD     =           0.0000         CONSTANT HEAD     =           0.0000
     HEAD DEP BOUNDS     =     3094379.7500       HEAD DEP BOUNDS     =           0.2922
      STREAM LEAKAGE     =   109831984.0000        STREAM LEAKAGE     =           6.0032
        UZF RECHARGE     =           0.0000          UZF RECHARGE     =           0.0000
               GW ET     =     1493710.8750                 GW ET     =           0.5010
     SURFACE LEAKAGE     =           0.0000       SURFACE LEAKAGE     =           0.0000
           AWU WELLS     =    52560000.0000             AWU WELLS     =           0.0000

               TOTAL OUT =   211307728.0000                 TOTAL OUT =          19.3905

                IN - OUT =       -7808.0000                  IN - OUT =       5.5313E-05

     PERCENT DISCREPANCY =          -0.00         PERCENT DISCREPANCY =           0.00






         TIME SUMMARY AT END OF TIME STEP   30 IN STRESS PERIOD    5
                    SECONDS     MINUTES      HOURS       DAYS        YEARS
                    -----------------------------------------------------------
   TIME STEP LENGTH  87600.      1460.0      24.333      1.0139     2.77588E-03
 STRESS PERIOD TIME 2.62800E+06  43800.      730.00      30.417     8.32763E-02
         TOTAL TIME 1.05984E+07 1.76640E+05  2944.0      122.67     0.33584    
1
1
                            STRESS PERIOD NO.    6, LENGTH =   2628000.    
                            -----------------------------------------------

                              NUMBER OF TIME STEPS =    30

                               MULTIPLIER FOR DELT =     1.000

                            INITIAL TIME STEP SIZE =   87600.00    

 REUSING NON-PARAMETER GHB CELLS FROM LAST STRESS PERIOD

      2 GHB CELLS

 REUSING STREAM SEGMENT DATA FROM LAST STRESS PERIOD



            AREAL INFILTRATION RATE
 READING ON UNIT   19 WITH FORMAT: (10F4.0)            

            1           2           3           4           5           6           7           8           9          10
 ........................................................................................................................
   1   1.0000E-10  2.0000E-10   0.000       0.000       0.000       0.000       0.000       0.000       0.000       0.000    
   2   2.0000E-10  1.0000E-10  2.0000E-10   0.000       0.000      8.0000E-10  8.0000E-10  5.0000E-10   0.000       0.000    
   3    0.000      5.0000E-10  1.0000E-10  1.0000E-10  8.0000E-10  8.0000E-10  5.0000E-10  5.0000E-10   0.000       0.000    
   4   8.0000E-10  5.0000E-10  1.0000E-10  1.0000E-10  1.0000E-10  1.0000E-10  1.0000E-10  1.0000E-10  2.0000E-10   0.000    
   5   8.0000E-10  5.0000E-10  1.0000E-10  1.0000E-10  1.0000E-10  1.0000E-10  1.0000E-10  1.0000E-10  1.0000E-10  1.0000E-10
   6   8.0000E-10  5.0000E-10  5.0000E-10  2.0000E-10  2.0000E-10  1.0000E-10  1.0000E-10  1.0000E-10  1.0000E-10  5.0000E-10
   7   8.0000E-10  5.0000E-10  5.0000E-10  2.0000E-10  2.0000E-10  1.0000E-10  1.0000E-10  2.0000E-10  2.0000E-10   0.000    
   8    0.000      5.0000E-10  5.0000E-10  2.0000E-10  2.0000E-10  1.0000E-10  1.0000E-10  2.0000E-10  5.0000E-10   0.000    
   9    0.000      5.0000E-10  5.0000E-10  2.0000E-10  2.0000E-10  1.0000E-10  1.0000E-10  2.0000E-10  5.0000E-10   0.000    
  10    0.000      5.0000E-10  5.0000E-10  2.0000E-10  2.0000E-10  1.0000E-10  1.0000E-10  2.0000E-10  5.0000E-10  8.0000E-10
  11    0.000      1.0000E-10  1.0000E-10  1.0000E-10  1.0000E-10  1.0000E-10  1.0000E-10  2.0000E-10  5.0000E-10   0.000    
  12   1.0000E-10  1.0000E-10  1.0000E-10  1.0000E-10  1.0000E-10  1.0000E-10  1.0000E-10  1.0000E-10  2.0000E-10   0.000    
  13   1.0000E-10  1.0000E-10  2.0000E-10  2.0000E-10  2.0000E-10  2.0000E-10  2.0000E-10  1.0000E-10  1.0000E-10   0.000    
  14    0.000      2.0000E-10  5.0000E-10  5.0000E-10  5.0000E-10  5.0000E-10  5.0000E-10  2.0000E-10  1.0000E-10   0.000    
  15    0.000       0.000      8.0000E-10  8.0000E-10  8.0000E-10  8.0000E-10   0.000       0.000       0.000       0.000    

                  ET RATE =  1.000000E-08

 USING ET EXTINCTION DEPTH FROM PREVIOUS STRESS PERIOD. CURRENT PERIOD IS:       6

 USING EXTINCTION WATER CONTENT FROM PREVIOUS STRESS PERIOD. CURRENT PERIOD IS:       6

 PROCESSING AWU STRESS PERIOD DATA

 READING AWU STRESS PERIOD DATA

 READING IRRIGATION WELL

 END PROCESSING AWU STRESS PERIOD DATA OPTIONS
 
 SOLVING FOR HEAD 
                                                   Max.-Head-Change                         Max.-Flux-Residual
  Residual-Control   Outer-Iter.   Inner-Iter.     Column Row Layer    Maximum-Head-Change  Column Row Layer    Maximum-Flux-Residual          L2-NORM 
          0                 1           2             2   13     1       0.2164514643E-01       4   13    1         0.1248095204E+01      0.3292530311E+01
          0                 2           2             4   13     1      -0.2068622052E-02       4   13    1        -0.1234556458E+00      0.3168501350E+00
          0                 3           2             4   13     1       0.1387308440E-03       4   13    1         0.8512454992E-02      0.2175573199E-01
          0                 4           1             4   13     1      -0.5378633352E-05       4   13    1        -0.3394156765E-03      0.8681188746E-03

    ------------------------------------------------
       NWT REQUIRED            4 OUTER ITERATIONS 
       AND A TOTAL OF          7 INNER ITERATIONS.
    ------------------------------------------------

 NO OUTPUT CONTROL FOR STRESS PERIOD    6   TIME STEP    1
 
 SOLVING FOR HEAD 
                                                   Max.-Head-Change                         Max.-Flux-Residual
  Residual-Control   Outer-Iter.   Inner-Iter.     Column Row Layer    Maximum-Head-Change  Column Row Layer    Maximum-Flux-Residual          L2-NORM 
          0                 1           2             2   13     1       0.1983688066E-01       2   13    1         0.1129215734E+01      0.3120724675E+01
          0                 2           2             4   13     1      -0.1855289341E-02       4   13    1        -0.1106848855E+00      0.2999289903E+00
          0                 3           2             4   13     1       0.1244462061E-03       4   13    1         0.7632977962E-02      0.2062437696E-01
          0                 4           1             4   13     1      -0.4832436586E-05       4   13    1        -0.3048469507E-03      0.8258472350E-03

    ------------------------------------------------
       NWT REQUIRED            4 OUTER ITERATIONS 
       AND A TOTAL OF          7 INNER ITERATIONS.
    ------------------------------------------------

 NO OUTPUT CONTROL FOR STRESS PERIOD    6   TIME STEP    2
 
 SOLVING FOR HEAD 
                                                   Max.-Head-Change                         Max.-Flux-Residual
  Residual-Control   Outer-Iter.   Inner-Iter.     Column Row Layer    Maximum-Head-Change  Column Row Layer    Maximum-Flux-Residual          L2-NORM 
          0                 1           2             2   13     1       0.1818027757E-01       2   13    1         0.1034812660E+01      0.2966018364E+01
          0                 2           2             2   13     1      -0.1683675173E-02       4   13    1        -0.9928674145E-01      0.2846487393E+00
          0                 3           2             4   13     1       0.1116630557E-03       4   13    1         0.6846100627E-02      0.1960238029E-01
          0                 4           1             5    7     1      -0.4378530595E-05       4   13    1        -0.2734608397E-03      0.7878651740E-03

    ------------------------------------------------
       NWT REQUIRED            4 OUTER ITERATIONS 
       AND A TOTAL OF          7 INNER ITERATIONS.
    ------------------------------------------------

 NO OUTPUT CONTROL FOR STRESS PERIOD    6   TIME STEP    3
 
 SOLVING FOR HEAD 
                                                   Max.-Head-Change                         Max.-Flux-Residual
  Residual-Control   Outer-Iter.   Inner-Iter.     Column Row Layer    Maximum-Head-Change  Column Row Layer    Maximum-Flux-Residual          L2-NORM 
          0                 1           2             2   13     1       0.1666272743E-01       2   13    1         0.9483357890E+00      0.2826486645E+01
          0                 2           2             5    7     1      -0.1581979555E-02       2   13    1        -0.9035057297E-01      0.2708270709E+00
          0                 3           2             5    7     1       0.1077269454E-03       4   13    1         0.6143650451E-02      0.1867595637E-01
          0                 4           1             5    7     1      -0.4286557687E-05       5    7    1        -0.2473761181E-03      0.7528279441E-03

    ------------------------------------------------
       NWT REQUIRED            4 OUTER ITERATIONS 
       AND A TOTAL OF          7 INNER ITERATIONS.
    ------------------------------------------------

 NO OUTPUT CONTROL FOR STRESS PERIOD    6   TIME STEP    4
 
 SOLVING FOR HEAD 
                                                   Max.-Head-Change                         Max.-Flux-Residual
  Residual-Control   Outer-Iter.   Inner-Iter.     Column Row Layer    Maximum-Head-Change  Column Row Layer    Maximum-Flux-Residual          L2-NORM 
          0                 1           2             5    7     1       0.1592269641E-01       2   13    1         0.8691280706E+00      0.2700424967E+01
          0                 2           2             5    7     1      -0.1548844191E-02       5    7    1        -0.8458874641E-01      0.2583084669E+00
          0                 3           2             5    7     1       0.1054705474E-03       5    7    1         0.5921214836E-02      0.1783858597E-01
          0                 4           1             5    7     1      -0.4196773586E-05       5    7    1        -0.2421780259E-03      0.7232234907E-03

    ------------------------------------------------
       NWT REQUIRED            4 OUTER ITERATIONS 
       AND A TOTAL OF          7 INNER ITERATIONS.
    ------------------------------------------------

 NO OUTPUT CONTROL FOR STRESS PERIOD    6   TIME STEP    5
 
 SOLVING FOR HEAD 
                                                   Max.-Head-Change                         Max.-Flux-Residual
  Residual-Control   Outer-Iter.   Inner-Iter.     Column Row Layer    Maximum-Head-Change  Column Row Layer    Maximum-Flux-Residual          L2-NORM 
          0                 1           2             4    7     1       0.1567014274E-01       5    7    1         0.8281621643E+00      0.2586293403E+01
          0                 2           2             4    7     1      -0.1524277717E-02       5    7    1        -0.8281622836E-01      0.2469434655E+00
          0                 3           1             4    7     1       0.1037976593E-03       5    7    1         0.5797138385E-02      0.1707614184E-01
          0                 4           1             4    7     1      -0.4130204505E-05       5    7    1        -0.2371066805E-03      0.6929317770E-03

    ------------------------------------------------
       NWT REQUIRED            4 OUTER ITERATIONS 
       AND A TOTAL OF          6 INNER ITERATIONS.
    ------------------------------------------------

 NO OUTPUT CONTROL FOR STRESS PERIOD    6   TIME STEP    6
 
 SOLVING FOR HEAD 
                                                   Max.-Head-Change                         Max.-Flux-Residual
  Residual-Control   Outer-Iter.   Inner-Iter.     Column Row Layer    Maximum-Head-Change  Column Row Layer    Maximum-Flux-Residual          L2-NORM 
          0                 1           2             4    7     1       0.1553312806E-01       4    7    1         0.8148355160E+00      0.2478123652E+01
          0                 2           2             4    7     1      -0.1510950233E-02       4    7    1        -0.8148357748E-01      0.2357828896E+00
          0                 3           1             4    7     1       0.1028901034E-03       4    7    1         0.5703852622E-02      0.1631066923E-01
          0                 4           1             4    7     1      -0.4094091510E-05       4    7    1        -0.2332878821E-03      0.6642715462E-03

    ------------------------------------------------
       NWT REQUIRED            4 OUTER ITERATIONS 
       AND A TOTAL OF          6 INNER ITERATIONS.
    ------------------------------------------------

 NO OUTPUT CONTROL FOR STRESS PERIOD    6   TIME STEP    7
 
 SOLVING FOR HEAD 
                                                   Max.-Head-Change                         Max.-Flux-Residual
  Residual-Control   Outer-Iter.   Inner-Iter.     Column Row Layer    Maximum-Head-Change  Column Row Layer    Maximum-Flux-Residual          L2-NORM 
          0                 1           2             4    7     1       0.1538919972E-01       4    7    1         0.8076964412E+00      0.2383109915E+01
          0                 2           2             4    7     1      -0.1496950204E-02       4    7    1        -0.8076968879E-01      0.2259743873E+00
          0                 3           1             4    7     1       0.1019367513E-03       4    7    1         0.5653880236E-02      0.1566960995E-01
          0                 4           1             4    7     1      -0.4056157426E-05       4    7    1        -0.2312440279E-03      0.6405679755E-03

    ------------------------------------------------
       NWT REQUIRED            4 OUTER ITERATIONS 
       AND A TOTAL OF          6 INNER ITERATIONS.
    ------------------------------------------------

 NO OUTPUT CONTROL FOR STRESS PERIOD    6   TIME STEP    8
 
 SOLVING FOR HEAD 
                                                   Max.-Head-Change                         Max.-Flux-Residual
  Residual-Control   Outer-Iter.   Inner-Iter.     Column Row Layer    Maximum-Head-Change  Column Row Layer    Maximum-Flux-Residual          L2-NORM 
          0                 1           2             4    7     1       0.1523968631E-01       4    7    1         0.8002282217E+00      0.2297755835E+01
          0                 2           2             4    7     1      -0.1482406868E-02       4    7    1        -0.8002288354E-01      0.2174214709E+00
          0                 3           1             4    7     1       0.1009464017E-03       4    7    1         0.5601603686E-02      0.1509351648E-01
          0                 4           1             4    7     1      -0.4016750630E-05       4    7    1        -0.2291059182E-03      0.6193738039E-03

    ------------------------------------------------
       NWT REQUIRED            4 OUTER ITERATIONS 
       AND A TOTAL OF          6 INNER ITERATIONS.
    ------------------------------------------------

 NO OUTPUT CONTROL FOR STRESS PERIOD    6   TIME STEP    9
 
 SOLVING FOR HEAD 
                                                   Max.-Head-Change                         Max.-Flux-Residual
  Residual-Control   Outer-Iter.   Inner-Iter.     Column Row Layer    Maximum-Head-Change  Column Row Layer    Maximum-Flux-Residual          L2-NORM 
          0                 1           2             4    7     1       0.1508473305E-01       4    7    1         0.7924406028E+00      0.2219662348E+01
          0                 2           2             4    7     1      -0.1467334353E-02       4    7    1        -0.7924413630E-01      0.2095777354E+00
          0                 3           1             4    7     1       0.9992001741E-04       4    7    1         0.5547091229E-02      0.1456443870E-01

    ------------------------------------------------
       NWT REQUIRED            3 OUTER ITERATIONS 
       AND A TOTAL OF          5 INNER ITERATIONS.
    ------------------------------------------------

 NO OUTPUT CONTROL FOR STRESS PERIOD    6   TIME STEP   10
 
 SOLVING FOR HEAD 
                                                   Max.-Head-Change                         Max.-Flux-Residual
  Residual-Control   Outer-Iter.   Inner-Iter.     Column Row Layer    Maximum-Head-Change  Column Row Layer    Maximum-Flux-Residual          L2-NORM 
          0                 1           2             4    7     1       0.1492550515E-01       4    7    1         0.7843974984E+00      0.2148003921E+01
          0                 2           2             4    7     1      -0.1451846005E-02       4    7    1        -0.7843983873E-01      0.2012878037E+00
          0                 3           1             4    7     1       0.9886531634E-04       4    7    1         0.5490790227E-02      0.1381977278E-01

    ------------------------------------------------
       NWT REQUIRED            3 OUTER ITERATIONS 
       AND A TOTAL OF          5 INNER ITERATIONS.
    ------------------------------------------------

 NO OUTPUT CONTROL FOR STRESS PERIOD    6   TIME STEP   11
 
 SOLVING FOR HEAD 
                                                   Max.-Head-Change                         Max.-Flux-Residual
  Residual-Control   Outer-Iter.   Inner-Iter.     Column Row Layer    Maximum-Head-Change  Column Row Layer    Maximum-Flux-Residual          L2-NORM 
          0                 1           2             5    8     1      -0.5148202402E-01       5    8    1        -0.2757311622E+01      0.6702590941E+01
          0                 2           2             4    7     1      -0.7895911526E-02       4    7    1        -0.4130522640E+00      0.9940749806E+00
          0                 3           2             4    7     1       0.7680831088E-03       4    7    1         0.4130261245E-01      0.9925096614E-01
          0                 4           1             4    7     1      -0.5227771077E-04       4    7    1        -0.2889480911E-02      0.6937710893E-02

    ------------------------------------------------
       NWT REQUIRED            4 OUTER ITERATIONS 
       AND A TOTAL OF          7 INNER ITERATIONS.
    ------------------------------------------------

 NO OUTPUT CONTROL FOR STRESS PERIOD    6   TIME STEP   12
 
 SOLVING FOR HEAD 
                                                   Max.-Head-Change                         Max.-Flux-Residual
  Residual-Control   Outer-Iter.   Inner-Iter.     Column Row Layer    Maximum-Head-Change  Column Row Layer    Maximum-Flux-Residual          L2-NORM 
          0                 1           2             4    7     1       0.1500775615E-01       4    7    1         0.7872516682E+00      0.2198627610E+01
          0                 2           2             4    7     1      -0.1459845997E-02       4    7    1        -0.7872520174E-01      0.1983108895E+00
          0                 3           1             4    7     1       0.9941009419E-04       4    7    1         0.5510766175E-02      0.1389999413E-01

    ------------------------------------------------
       NWT REQUIRED            3 OUTER ITERATIONS 
       AND A TOTAL OF          5 INNER ITERATIONS.
    ------------------------------------------------

 NO OUTPUT CONTROL FOR STRESS PERIOD    6   TIME STEP   13
 
 SOLVING FOR HEAD 
                                                   Max.-Head-Change                         Max.-Flux-Residual
  Residual-Control   Outer-Iter.   Inner-Iter.     Column Row Layer    Maximum-Head-Change  Column Row Layer    Maximum-Flux-Residual          L2-NORM 
          0                 1           2             4    7     1       0.1486991033E-01       4    7    1         0.7803887216E+00      0.2134010817E+01
          0                 2           2             4    7     1      -0.1446437592E-02       4    7    1        -0.7803892325E-01      0.1933210550E+00
          0                 3           1             4    7     1       0.9849702906E-04       4    7    1         0.5462726514E-02      0.1355431590E-01

    ------------------------------------------------
       NWT REQUIRED            3 OUTER ITERATIONS 
       AND A TOTAL OF          5 INNER ITERATIONS.
    ------------------------------------------------

 NO OUTPUT CONTROL FOR STRESS PERIOD    6   TIME STEP   14
 
 SOLVING FOR HEAD 
                                                   Max.-Head-Change                         Max.-Flux-Residual
  Residual-Control   Outer-Iter.   Inner-Iter.     Column Row Layer    Maximum-Head-Change  Column Row Layer    Maximum-Flux-Residual          L2-NORM 
          0                 1           2             4    7     1       0.1472657876E-01       4    7    1         0.7732064328E+00      0.2073811234E+01
          0                 2           2             4    7     1      -0.1432495547E-02       4    7    1        -0.7732070869E-01      0.1885739591E+00
          0                 3           1             4    7     1       0.9754762583E-04       4    7    1         0.5412451331E-02      0.1322387798E-01

    ------------------------------------------------
       NWT REQUIRED            3 OUTER ITERATIONS 
       AND A TOTAL OF          5 INNER ITERATIONS.
    ------------------------------------------------

 NO OUTPUT CONTROL FOR STRESS PERIOD    6   TIME STEP   15
 
 SOLVING FOR HEAD 
                                                   Max.-Head-Change                         Max.-Flux-Residual
  Residual-Control   Outer-Iter.   Inner-Iter.     Column Row Layer    Maximum-Head-Change  Column Row Layer    Maximum-Flux-Residual          L2-NORM 
          0                 1           2             4    7     1       0.1457892619E-01       4    7    1         0.7657691030E+00      0.2017907706E+01
          0                 2           2             4    7     1      -0.1418133163E-02       4    7    1        -0.7657698843E-01      0.1840310193E+00
          0                 3           1             4    7     1       0.9656959839E-04       4    7    1         0.5360390755E-02      0.1290790080E-01

    ------------------------------------------------
       NWT REQUIRED            3 OUTER ITERATIONS 
       AND A TOTAL OF          5 INNER ITERATIONS.
    ------------------------------------------------

 NO OUTPUT CONTROL FOR STRESS PERIOD    6   TIME STEP   16
 
 SOLVING FOR HEAD 
                                                   Max.-Head-Change                         Max.-Flux-Residual
  Residual-Control   Outer-Iter.   Inner-Iter.     Column Row Layer    Maximum-Head-Change  Column Row Layer    Maximum-Flux-Residual          L2-NORM 
          0                 1           2             4    7     1       0.1442724075E-01       4    7    1         0.7580927725E+00      0.1965834891E+01
          0                 2           2             4    7     1      -0.1403378467E-02       4    7    1        -0.7580936652E-01      0.1796823894E+00
          0                 3           1             4    7     1       0.9556485692E-04       4    7    1         0.5306657112E-02      0.1260508959E-01

    ------------------------------------------------
       NWT REQUIRED            3 OUTER ITERATIONS 
       AND A TOTAL OF          5 INNER ITERATIONS.
    ------------------------------------------------

 NO OUTPUT CONTROL FOR STRESS PERIOD    6   TIME STEP   17
 
 SOLVING FOR HEAD 
                                                   Max.-Head-Change                         Max.-Flux-Residual
  Residual-Control   Outer-Iter.   Inner-Iter.     Column Row Layer    Maximum-Head-Change  Column Row Layer    Maximum-Flux-Residual          L2-NORM 
          0                 1           2             4    7     1       0.1427177968E-01       4    7    1         0.7501923888E+00      0.1917141670E+01
          0                 2           2             4    7     1      -0.1388256485E-02       4    7    1        -0.7501933790E-01      0.1755139336E+00
          0                 3           1             4    7     1       0.9453510477E-04       4    7    1         0.5251354992E-02      0.1231502262E-01

    ------------------------------------------------
       NWT REQUIRED            3 OUTER ITERATIONS 
       AND A TOTAL OF          5 INNER ITERATIONS.
    ------------------------------------------------

 NO OUTPUT CONTROL FOR STRESS PERIOD    6   TIME STEP   18
 
 SOLVING FOR HEAD 
                                                   Max.-Head-Change                         Max.-Flux-Residual
  Residual-Control   Outer-Iter.   Inner-Iter.     Column Row Layer    Maximum-Head-Change  Column Row Layer    Maximum-Flux-Residual          L2-NORM 
          0                 1           2             4    7     1       0.1411359156E-01       4    7    1         0.7421257005E+00      0.1871488253E+01
          0                 2           2             4    7     1      -0.1372869216E-02       4    7    1        -0.7421267755E-01      0.1715182327E+00
          0                 3           1             4    7     1       0.9348728758E-04       4    7    1         0.5194888652E-02      0.1203700712E-01

    ------------------------------------------------
       NWT REQUIRED            3 OUTER ITERATIONS 
       AND A TOTAL OF          5 INNER ITERATIONS.
    ------------------------------------------------

 NO OUTPUT CONTROL FOR STRESS PERIOD    6   TIME STEP   19
 
 SOLVING FOR HEAD 
                                                   Max.-Head-Change                         Max.-Flux-Residual
  Residual-Control   Outer-Iter.   Inner-Iter.     Column Row Layer    Maximum-Head-Change  Column Row Layer    Maximum-Flux-Residual          L2-NORM 
          0                 1           2             4    7     1       0.1395258181E-01       4    7    1         0.7338879144E+00      0.1828552511E+01
          0                 2           2             4    7     1      -0.1357207463E-02       4    7    1        -0.7338890623E-01      0.1674660734E+00
          0                 3           1             4    7     1       0.9242077960E-04       4    7    1         0.5137224585E-02      0.1166810568E-01

    ------------------------------------------------
       NWT REQUIRED            3 OUTER ITERATIONS 
       AND A TOTAL OF          5 INNER ITERATIONS.
    ------------------------------------------------

 NO OUTPUT CONTROL FOR STRESS PERIOD    6   TIME STEP   20
 
 SOLVING FOR HEAD 
                                                   Max.-Head-Change                         Max.-Flux-Residual
  Residual-Control   Outer-Iter.   Inner-Iter.     Column Row Layer    Maximum-Head-Change  Column Row Layer    Maximum-Flux-Residual          L2-NORM 
          0                 1           2             4    7     1       0.1378946142E-01       4    7    1         0.7255185249E+00      0.1788246520E+01
          0                 2           2             4    7     1      -0.1341340388E-02       4    7    1        -0.7255197358E-01      0.1622451478E+00
          0                 3           1             4    7     1       0.9134028943E-04       4    7    1         0.5078639201E-02      0.1139137664E-01

    ------------------------------------------------
       NWT REQUIRED            3 OUTER ITERATIONS 
       AND A TOTAL OF          5 INNER ITERATIONS.
    ------------------------------------------------

 NO OUTPUT CONTROL FOR STRESS PERIOD    6   TIME STEP   21
 
 SOLVING FOR HEAD 
                                                   Max.-Head-Change                         Max.-Flux-Residual
  Residual-Control   Outer-Iter.   Inner-Iter.     Column Row Layer    Maximum-Head-Change  Column Row Layer    Maximum-Flux-Residual          L2-NORM 
          0                 1           2             4    7     1       0.1362435697E-01       4    7    1         0.7170248206E+00      0.1749957469E+01
          0                 2           2             4    7     1      -0.1325280302E-02       4    7    1        -0.7170260839E-01      0.1588150258E+00
          0                 3           1             4    7     1       0.9024665656E-04       4    7    1         0.5019183559E-02      0.1115356338E-01

    ------------------------------------------------
       NWT REQUIRED            3 OUTER ITERATIONS 
       AND A TOTAL OF          5 INNER ITERATIONS.
    ------------------------------------------------

 NO OUTPUT CONTROL FOR STRESS PERIOD    6   TIME STEP   22
 
 SOLVING FOR HEAD 
                                                   Max.-Head-Change                         Max.-Flux-Residual
  Residual-Control   Outer-Iter.   Inner-Iter.     Column Row Layer    Maximum-Head-Change  Column Row Layer    Maximum-Flux-Residual          L2-NORM 
          0                 1           2             4    7     1       0.1345818234E-01       4    7    1         0.7084577753E+00      0.1713558134E+01
          0                 2           2             4    7     1      -0.1309116105E-02       4    7    1        -0.7084590829E-01      0.1555179124E+00
          0                 3           1             4    7     1       0.8914593367E-04       4    7    1         0.4959214481E-02      0.1092437283E-01

    ------------------------------------------------
       NWT REQUIRED            3 OUTER ITERATIONS 
       AND A TOTAL OF          5 INNER ITERATIONS.
    ------------------------------------------------

 NO OUTPUT CONTROL FOR STRESS PERIOD    6   TIME STEP   23
 
 SOLVING FOR HEAD 
                                                   Max.-Head-Change                         Max.-Flux-Residual
  Residual-Control   Outer-Iter.   Inner-Iter.     Column Row Layer    Maximum-Head-Change  Column Row Layer    Maximum-Flux-Residual          L2-NORM 
          0                 1           2             4    7     1       0.1329072663E-01       4    7    1         0.6998055994E+00      0.1679004031E+01
          0                 2           2             4    7     1      -0.1292827281E-02       4    7    1        -0.6998069430E-01      0.1523443723E+00
          0                 3           1             4    7     1       0.8803672486E-04       4    7    1         0.4898649431E-02      0.1070381983E-01

    ------------------------------------------------
       NWT REQUIRED            3 OUTER ITERATIONS 
       AND A TOTAL OF          5 INNER ITERATIONS.
    ------------------------------------------------

 NO OUTPUT CONTROL FOR STRESS PERIOD    6   TIME STEP   24
 
 SOLVING FOR HEAD 
                                                   Max.-Head-Change                         Max.-Flux-Residual
  Residual-Control   Outer-Iter.   Inner-Iter.     Column Row Layer    Maximum-Head-Change  Column Row Layer    Maximum-Flux-Residual          L2-NORM 
          0                 1           2             4    7     1       0.1312258520E-01       4    7    1         0.6911017564E+00      0.1646137262E+01
          0                 2           2             4    7     1      -0.1276471746E-02       4    7    1        -0.6911031289E-01      0.1492895302E+00
          0                 3           1             4    7     1       0.8692297334E-04       4    7    1         0.4837722694E-02      0.1049158809E-01

    ------------------------------------------------
       NWT REQUIRED            3 OUTER ITERATIONS 
       AND A TOTAL OF          5 INNER ITERATIONS.
    ------------------------------------------------

 NO OUTPUT CONTROL FOR STRESS PERIOD    6   TIME STEP   25
 
 SOLVING FOR HEAD 
                                                   Max.-Head-Change                         Max.-Flux-Residual
  Residual-Control   Outer-Iter.   Inner-Iter.     Column Row Layer    Maximum-Head-Change  Column Row Layer    Maximum-Flux-Residual          L2-NORM 
          0                 1           2             4    7     1       0.1295404474E-01       4    7    1         0.6823623364E+00      0.1614818708E+01
          0                 2           2             4    7     1      -0.1260077386E-02       4    7    1        -0.6823637315E-01      0.1463478672E+00
          0                 3           1             4    7     1       0.8580657770E-04       4    7    1         0.4776546858E-02      0.1028730091E-01

    ------------------------------------------------
       NWT REQUIRED            3 OUTER ITERATIONS 
       AND A TOTAL OF          5 INNER ITERATIONS.
    ------------------------------------------------

 NO OUTPUT CONTROL FOR STRESS PERIOD    6   TIME STEP   26
 
 SOLVING FOR HEAD 
                                                   Max.-Head-Change                         Max.-Flux-Residual
  Residual-Control   Outer-Iter.   Inner-Iter.     Column Row Layer    Maximum-Head-Change  Column Row Layer    Maximum-Flux-Residual          L2-NORM 
          0                 1           2             4    7     1       0.1278510191E-01       4    7    1         0.6735874107E+00      0.1584923934E+01
          0                 2           2             4    7     1      -0.1243643878E-02       4    7    1        -0.6735888221E-01      0.1435142185E+00
          0                 3           1             4    7     1       0.8468751689E-04       4    7    1         0.4715122458E-02      0.1009057153E-01

    ------------------------------------------------
       NWT REQUIRED            3 OUTER ITERATIONS 
       AND A TOTAL OF          5 INNER ITERATIONS.
    ------------------------------------------------

 NO OUTPUT CONTROL FOR STRESS PERIOD    6   TIME STEP   27
 
 SOLVING FOR HEAD 
                                                   Max.-Head-Change                         Max.-Flux-Residual
  Residual-Control   Outer-Iter.   Inner-Iter.     Column Row Layer    Maximum-Head-Change  Column Row Layer    Maximum-Flux-Residual          L2-NORM 
          0                 1           2             4    7     1       0.1261654844E-01       4    7    1         0.6648212178E+00      0.1556345412E+01
          0                 2           2             4    7     1      -0.1227248237E-02       4    7    1        -0.6648226410E-01      0.1407834092E+00
          0                 3           1             4    7     1       0.8357103440E-04       4    7    1         0.4653759146E-02      0.9901034535E-02

    ------------------------------------------------
       NWT REQUIRED            3 OUTER ITERATIONS 
       AND A TOTAL OF          5 INNER ITERATIONS.
    ------------------------------------------------

 NO OUTPUT CONTROL FOR STRESS PERIOD    6   TIME STEP   28
 
 SOLVING FOR HEAD 
                                                   Max.-Head-Change                         Max.-Flux-Residual
  Residual-Control   Outer-Iter.   Inner-Iter.     Column Row Layer    Maximum-Head-Change  Column Row Layer    Maximum-Flux-Residual          L2-NORM 
          0                 1           2             4    7     1       0.1244805607E-01       4    7    1         0.6560456217E+00      0.1528980442E+01
          0                 2           2             4    7     1      -0.1210858531E-02       4    7    1        -0.6560470512E-01      0.1381431391E+00
          0                 3           1             4    7     1       0.8245495638E-04       4    7    1         0.4592329983E-02      0.9717842575E-02

    ------------------------------------------------
       NWT REQUIRED            3 OUTER ITERATIONS 
       AND A TOTAL OF          5 INNER ITERATIONS.
    ------------------------------------------------

 NO OUTPUT CONTROL FOR STRESS PERIOD    6   TIME STEP   29
 
 SOLVING FOR HEAD 
                                                   Max.-Head-Change                         Max.-Flux-Residual
  Residual-Control   Outer-Iter.   Inner-Iter.     Column Row Layer    Maximum-Head-Change  Column Row Layer    Maximum-Flux-Residual          L2-NORM 
          0                 1           2             4    7     1       0.1227981616E-01       4    7    1         0.6472731978E+00      0.1483730746E+01
          0                 2           2             4    7     1      -0.1194493378E-02       4    7    1        -0.6472746298E-01      0.1356745849E+00
          0                 3           1             4    7     1       0.8134054999E-04       4    7    1         0.4530923001E-02      0.9547165789E-02

    ------------------------------------------------
       NWT REQUIRED            3 OUTER ITERATIONS 
       AND A TOTAL OF          5 INNER ITERATIONS.
    ------------------------------------------------

 NO OUTPUT CONTROL FOR STRESS PERIOD    6   TIME STEP   30



 STREAM LISTING     PERIOD      6   STEP       30

 LAYER ROW COL. STREAM  RCH.  FLOW INTO     FLOW TO   FLOW OUT OF   OVRLND.     DIRECT     STREAM       STREAM     STREAM     STREAM   STREAMBED  STREAMBED
                SEG.NO.  NO.  STRM. RCH.    AQUIFER    STRM. RCH.    RUNOFF     PRECIP       ET          HEAD       DEPTH      WIDTH   CONDCTNC.   GRADIENT

   1    1    1     1     1    9.4178E+01  4.6332E-01   9.3715E+01  0.000E+00  0.000E+00  0.000E+00  1.09483E+03  1.778E+00  2.155E+01  9.697E-02  1.593E+00
   1    2    2     1     2    9.3715E+01  7.1888E-01   9.2996E+01  0.000E+00  0.000E+00  0.000E+00  1.08983E+03  1.776E+00  2.150E+01  1.505E-01  1.592E+00
   1    3    3     1     3    9.2996E+01  6.1439E-01   9.2382E+01  0.000E+00  0.000E+00  0.000E+00  1.08419E+03  1.773E+00  2.145E+01  1.287E-01  1.591E+00
   1    3    4     1     4    9.2382E+01  5.6684E-01   9.1815E+01  0.000E+00  0.000E+00  0.000E+00  1.07918E+03  1.771E+00  2.141E+01  1.188E-01  1.590E+00
   1    4    5     2     1    8.9815E+01  4.3659E-01   8.9378E+01  0.000E+00  0.000E+00  0.000E+00  1.07453E+03  2.597E+00  1.200E+01  7.800E-02  1.866E+00
   1    5    6     2     2    8.9378E+01  3.3543E-01   8.9043E+01  0.000E+00  0.000E+00  0.000E+00  1.06910E+03  2.591E+00  1.200E+01  6.000E-02  1.864E+00
   1    6    6     2     3    8.9043E+01  3.3508E-01   8.8708E+01  0.000E+00  0.000E+00  0.000E+00  1.06438E+03  2.585E+00  1.200E+01  6.000E-02  1.862E+00
   1    7    6     2     4    8.8708E+01  3.3473E-01   8.8373E+01  0.000E+00  0.000E+00  0.000E+00  1.05965E+03  2.579E+00  1.200E+01  6.000E-02  1.860E+00
   1    8    6     2     5    8.8373E+01  3.3438E-01   8.8038E+01  0.000E+00  0.000E+00  0.000E+00  1.05493E+03  2.573E+00  1.200E+01  6.000E-02  1.858E+00
   1    3    5     3     1    2.0000E+00  2.8252E-01   1.7175E+00  0.000E+00  0.000E+00  0.000E+00  1.07555E+03  1.909E+00  9.636E+00  7.227E-02  1.955E+00
   1    3    6     3     2    1.7175E+00  2.4905E-01   1.4684E+00  0.000E+00  0.000E+00  0.000E+00  1.07264E+03  1.727E+00  8.909E+00  6.682E-02  1.864E+00
   1    3    7     3     3    1.4684E+00  1.9718E-01   1.2712E+00  0.000E+00  0.000E+00  0.000E+00  1.06987E+03  1.555E+00  8.218E+00  5.547E-02  1.777E+00
   1    4    8     3     4    1.2712E+00  2.2567E-01   1.0456E+00  0.000E+00  0.000E+00  0.000E+00  1.06682E+03  1.364E+00  7.455E+00  6.709E-02  1.682E+00
   1    5    8     3     5    1.0456E+00  1.5790E-01   8.8768E-01  0.000E+00  0.000E+00  0.000E+00  1.06362E+03  1.164E+00  6.655E+00  4.991E-02  1.582E+00
   1    6    8     3     6    8.8768E-01  5.5980E-02   8.3170E-01  0.000E+00  0.000E+00  0.000E+00  1.06158E+03  1.036E+00  6.145E+00  1.844E-02  1.518E+00
   1    5   10     4     1    1.0000E+01  9.0919E-02   9.9091E+00  0.000E+00  0.000E+00  0.000E+00  1.07836E+03  6.368E-01  1.000E+01  2.500E-02  1.212E+00
   1    5    9     4     2    9.9091E+00  1.8158E-01   9.7275E+00  0.000E+00  0.000E+00  0.000E+00  1.07154E+03  6.315E-01  1.000E+01  5.000E-02  1.211E+00
   1    6    8     4     3    9.7275E+00  1.2689E-01   9.6006E+00  0.000E+00  0.000E+00  0.000E+00  1.06381E+03  6.256E-01  1.000E+01  3.500E-02  1.209E+00
   1    6    8     5     1    1.0432E+01  2.2686E-01   1.0205E+01  0.000E+00  0.000E+00  0.000E+00  1.05868E+03  6.790E-01  1.542E+01  6.166E-02  1.226E+00
   1    7    7     5     2    1.0205E+01  2.7894E-01   9.9265E+00  0.000E+00  0.000E+00  0.000E+00  1.05417E+03  6.732E-01  1.519E+01  7.594E-02  1.224E+00
   1    8    7     5     3    9.9265E+00  1.9221E-01   9.7343E+00  0.000E+00  0.000E+00  0.000E+00  1.04992E+03  6.676E-01  1.497E+01  5.241E-02  1.223E+00
   1    8    6     5     4    9.7343E+00  1.3577E-01   9.5985E+00  0.000E+00  0.000E+00  0.000E+00  1.04691E+03  6.637E-01  1.482E+01  3.706E-02  1.221E+00
   1    9    6     6     1    9.7637E+01  3.4574E-01   9.7291E+01  0.000E+00  0.000E+00  0.000E+00  1.04549E+03  2.762E+00  1.200E+01  6.000E-02  1.921E+00
   1   10    7     6     2    9.7291E+01  3.4539E-01   9.6946E+01  0.000E+00  0.000E+00  0.000E+00  1.04094E+03  2.756E+00  1.200E+01  6.000E-02  1.919E+00
   1   11    7     6     3    9.6946E+01  3.4503E-01   9.6601E+01  0.000E+00  0.000E+00  0.000E+00  1.03639E+03  2.751E+00  1.200E+01  6.000E-02  1.917E+00
   1   12    7     6     4    9.6601E+01  3.4468E-01   9.6256E+01  0.000E+00  0.000E+00  0.000E+00  1.03184E+03  2.745E+00  1.200E+01  6.000E-02  1.915E+00
   1   13    7     6     5    9.6256E+01  3.5548E-02   9.6221E+01  0.000E+00  0.000E+00  0.000E+00  1.02865E+03  2.741E+00  1.200E+01  2.400E-02  4.937E-01
   1   14    9     7     1    1.5000E+02  1.3353E+00   1.4866E+02  0.000E+00  0.000E+00  0.000E+00  1.03987E+03  2.288E+00  5.529E+01  5.593E-01  7.958E-01
   1   13    8     7     2    1.4866E+02  1.8174E+00   1.4685E+02  0.000E+00  0.000E+00  0.000E+00  1.03478E+03  2.279E+00  5.526E+01  6.148E-01  9.854E-01
   1   13    7     7     3    1.4685E+02  1.4077E+00   1.4544E+02  0.000E+00  0.000E+00  0.000E+00  1.02969E+03  2.271E+00  5.522E+01  5.585E-01  8.402E-01
   1   13    6     8     1    2.4166E+02  1.1425E+00   2.4052E+02  0.000E+00  0.000E+00  0.000E+00  1.02524E+03  3.365E+00  4.880E+01  4.973E-01  7.658E-01
   1   13    5     8     2    2.4052E+02  3.0253E-01   2.4022E+02  0.000E+00  0.000E+00  0.000E+00  1.01899E+03  3.362E+00  4.874E+01  4.967E-01  2.030E-01
   1   13    4     8     3    2.4022E+02 -2.1710E+00   2.4239E+02  0.000E+00  0.000E+00  0.000E+00  1.01274E+03  3.367E+00  4.882E+01  4.974E+00 -1.455E-01
   1   13    3     8     4    2.4239E+02 -3.4324E+00   2.4582E+02  0.000E+00  0.000E+00  0.000E+00  1.00651E+03  3.381E+00  4.903E+01  4.996E+00 -2.290E-01
   1   13    2     8     5    2.4582E+02 -2.3951E+00   2.4821E+02  0.000E+00  0.000E+00  0.000E+00  1.00027E+03  3.396E+00  4.925E+01  5.018E+00 -1.591E-01
   1   13    1     8     6    2.4821E+02 -1.7025E+00   2.4992E+02  0.000E+00  0.000E+00  0.000E+00  9.95282E+02  3.407E+00  4.940E+01  3.020E+00 -1.879E-01





UNSATURATED ZONE PACKAGE VOLUMETRIC BUDGET FOR  TIME STEP    30 STRESS PERIOD    6
  ------------------------------------------------------------------------------



     CUMULATIVE VOLUMES      L**3       RATES FOR THIS TIME STEP      L**3/T
     ------------------                 ------------------------

           IN:                                      IN:
           ---                                      ---
        INFILTRATION =    65900938.5000          INFILTRATION =           0.8475

          OUT:                                     OUT:
          ----                                     ----
              UZF ET =    11394692.0695                UZF ET =           2.9025
        UZF RECHARGE =     6064567.1109          UZF RECHARGE =           0.3827

            IN - OUT =    48441679.3196              IN - OUT =          -2.4377

          STORAGE:                                 STORAGE:
          --------                                 --------
      STORAGE CHANGE =    48451485.2814        STORAGE CHANGE =          -2.4377

 PERCENT DISCREPANCY IS DIFFERENCE BETWEEN IN-OUT MINUS CHANGE IN STORAGE
 DIVIDED BY THE AVERAGE OF IN AND OUT TIMES 100

 PERCENT DISCREPANCY =          -0.00     PERCENT DISCREPANCY =           0.00






1
  VOLUMETRIC BUDGET FOR ENTIRE MODEL AT END OF TIME STEP   30, STRESS PERIOD   6
  ------------------------------------------------------------------------------

     CUMULATIVE VOLUMES      L**3       RATES FOR THIS TIME STEP      L**3/T
     ------------------                 ------------------------

           IN:                                      IN:
           ---                                      ---
               AWU WELLS =    54691564.0000                 AWU WELLS =           0.0000
      DIVERSION SEGMENTS =           0.0000        DIVERSION SEGMENTS =           0.0000
           GW IRRIGATION =           0.0000             GW IRRIGATION =           0.0000
           SW IRRIGATION =           0.0000             SW IRRIGATION =           0.0000
        SYSTEM LOSSES GW =           0.0000          SYSTEM LOSSES GW =           0.0000
        SYSTEM LOSSES SW =           0.0000          SYSTEM LOSSES SW =           0.0000

                TOTAL IN =    54691564.0000                  TOTAL IN =           0.0000

          OUT:                                     OUT:
          ----                                     ----
               AWU WELLS =           0.0000                 AWU WELLS =           0.0000
      DIVERSION SEGMENTS =           0.0000        DIVERSION SEGMENTS =           0.0000
           GW IRRIGATION =    54691564.0000             GW IRRIGATION =           0.0000
           SW IRRIGATION =           0.0000             SW IRRIGATION =           0.0000
        SYSTEM LOSSES GW =           0.0000          SYSTEM LOSSES GW =           0.0000
        SYSTEM LOSSES SW =           0.0000          SYSTEM LOSSES SW =           0.0000

               TOTAL OUT =    54691564.0000                 TOTAL OUT =           0.0000

                IN - OUT =           0.0000                  IN - OUT =           0.0000

     PERCENT DISCREPANCY =           0.00         PERCENT DISCREPANCY =           0.00



1
  VOLUMETRIC BUDGET FOR ENTIRE MODEL AT END OF TIME STEP   30, STRESS PERIOD   6
  ------------------------------------------------------------------------------

     CUMULATIVE VOLUMES      L**3       RATES FOR THIS TIME STEP      L**3/T
     ------------------                 ------------------------

           IN:                                      IN:
           ---                                      ---
             STORAGE     =    82484496.0000               STORAGE     =           2.1002
       CONSTANT HEAD     =           0.0000         CONSTANT HEAD     =           0.0000
     HEAD DEP BOUNDS     =     3779509.5000       HEAD DEP BOUNDS     =           0.2857
      STREAM LEAKAGE     =   167880672.0000        STREAM LEAKAGE     =          13.9630
        UZF RECHARGE     =     6064566.0000          UZF RECHARGE     =           0.3827
               GW ET     =           0.0000                 GW ET     =           0.0000
     SURFACE LEAKAGE     =           0.0000       SURFACE LEAKAGE     =           0.0000
           AWU WELLS     =           0.0000             AWU WELLS     =           0.0000

                TOTAL IN =   260209232.0000                  TOTAL IN =          16.7316

          OUT:                                     OUT:
          ----                                     ----
             STORAGE     =    65469720.0000               STORAGE     =           5.6448
       CONSTANT HEAD     =           0.0000         CONSTANT HEAD     =           0.0000
     HEAD DEP BOUNDS     =     3872057.0000       HEAD DEP BOUNDS     =           0.2981
      STREAM LEAKAGE     =   131897728.0000        STREAM LEAKAGE     =           9.7010
        UZF RECHARGE     =           0.0000          UZF RECHARGE     =           0.0000
               GW ET     =     4285709.0000                 GW ET     =           1.0876
     SURFACE LEAKAGE     =           0.0000       SURFACE LEAKAGE     =           0.0000
           AWU WELLS     =    54691564.0000             AWU WELLS     =           0.0000

               TOTAL OUT =   260216784.0000                 TOTAL OUT =          16.7314

                IN - OUT =       -7552.0000                  IN - OUT =       1.7548E-04

     PERCENT DISCREPANCY =          -0.00         PERCENT DISCREPANCY =           0.00






         TIME SUMMARY AT END OF TIME STEP   30 IN STRESS PERIOD    6
                    SECONDS     MINUTES      HOURS       DAYS        YEARS
                    -----------------------------------------------------------
   TIME STEP LENGTH  87600.      1460.0      24.333      1.0139     2.77588E-03
 STRESS PERIOD TIME 2.62800E+06  43800.      730.00      30.417     8.32763E-02
         TOTAL TIME 1.32264E+07 2.20440E+05  3674.0      153.08     0.41912    
1
1
                            STRESS PERIOD NO.    7, LENGTH =   2628000.    
                            -----------------------------------------------

                              NUMBER OF TIME STEPS =    30

                               MULTIPLIER FOR DELT =     1.000

                            INITIAL TIME STEP SIZE =   87600.00    

 REUSING NON-PARAMETER GHB CELLS FROM LAST STRESS PERIOD

      2 GHB CELLS

 REUSING STREAM SEGMENT DATA FROM LAST STRESS PERIOD



            AREAL INFILTRATION RATE
 READING ON UNIT   19 WITH FORMAT: (10F4.0)            

            1           2           3           4           5           6           7           8           9          10
 ........................................................................................................................
   1   1.0000E-10  2.0000E-10   0.000       0.000       0.000       0.000       0.000       0.000       0.000       0.000    
   2   2.0000E-10  1.0000E-10  2.0000E-10   0.000       0.000      8.0000E-10  8.0000E-10  5.0000E-10   0.000       0.000    
   3    0.000      5.0000E-10  1.0000E-10  1.0000E-10  8.0000E-10  8.0000E-10  5.0000E-10  5.0000E-10   0.000       0.000    
   4   8.0000E-10  5.0000E-10  1.0000E-10  1.0000E-10  1.0000E-10  1.0000E-10  1.0000E-10  1.0000E-10  2.0000E-10   0.000    
   5   8.0000E-10  5.0000E-10  1.0000E-10  1.0000E-10  1.0000E-10  1.0000E-10  1.0000E-10  1.0000E-10  1.0000E-10  1.0000E-10
   6   8.0000E-10  5.0000E-10  5.0000E-10  2.0000E-10  2.0000E-10  1.0000E-10  1.0000E-10  1.0000E-10  1.0000E-10  5.0000E-10
   7   8.0000E-10  5.0000E-10  5.0000E-10  2.0000E-10  2.0000E-10  1.0000E-10  1.0000E-10  2.0000E-10  2.0000E-10   0.000    
   8    0.000      5.0000E-10  5.0000E-10  2.0000E-10  2.0000E-10  1.0000E-10  1.0000E-10  2.0000E-10  5.0000E-10   0.000    
   9    0.000      5.0000E-10  5.0000E-10  2.0000E-10  2.0000E-10  1.0000E-10  1.0000E-10  2.0000E-10  5.0000E-10   0.000    
  10    0.000      5.0000E-10  5.0000E-10  2.0000E-10  2.0000E-10  1.0000E-10  1.0000E-10  2.0000E-10  5.0000E-10  8.0000E-10
  11    0.000      1.0000E-10  1.0000E-10  1.0000E-10  1.0000E-10  1.0000E-10  1.0000E-10  2.0000E-10  5.0000E-10   0.000    
  12   1.0000E-10  1.0000E-10  1.0000E-10  1.0000E-10  1.0000E-10  1.0000E-10  1.0000E-10  1.0000E-10  2.0000E-10   0.000    
  13   1.0000E-10  1.0000E-10  2.0000E-10  2.0000E-10  2.0000E-10  2.0000E-10  2.0000E-10  1.0000E-10  1.0000E-10   0.000    
  14    0.000      2.0000E-10  5.0000E-10  5.0000E-10  5.0000E-10  5.0000E-10  5.0000E-10  2.0000E-10  1.0000E-10   0.000    
  15    0.000       0.000      8.0000E-10  8.0000E-10  8.0000E-10  8.0000E-10   0.000       0.000       0.000       0.000    

                  ET RATE =  3.000000E-08

 USING ET EXTINCTION DEPTH FROM PREVIOUS STRESS PERIOD. CURRENT PERIOD IS:       7

 USING EXTINCTION WATER CONTENT FROM PREVIOUS STRESS PERIOD. CURRENT PERIOD IS:       7

 PROCESSING AWU STRESS PERIOD DATA

 READING AWU STRESS PERIOD DATA

 READING IRRIGATION WELL

 END PROCESSING AWU STRESS PERIOD DATA OPTIONS
 
 SOLVING FOR HEAD 
                                                   Max.-Head-Change                         Max.-Flux-Residual
  Residual-Control   Outer-Iter.   Inner-Iter.     Column Row Layer    Maximum-Head-Change  Column Row Layer    Maximum-Flux-Residual          L2-NORM 
          0                 1           2             4   13     1      -0.1285402729E-01       4   13    1        -0.7424507185E+00      0.1920686184E+01
          0                 2           2             4   13     1       0.1236644844E-02       4   13    1         0.7339130655E-01      0.1802182537E+00
          0                 3           1             4   13     1      -0.8291056344E-04       4   13    1        -0.5060739537E-02      0.1238449723E-01

    ------------------------------------------------
       NWT REQUIRED            3 OUTER ITERATIONS 
       AND A TOTAL OF          5 INNER ITERATIONS.
    ------------------------------------------------

 NO OUTPUT CONTROL FOR STRESS PERIOD    7   TIME STEP    1
 
 SOLVING FOR HEAD 
                                                   Max.-Head-Change                         Max.-Flux-Residual
  Residual-Control   Outer-Iter.   Inner-Iter.     Column Row Layer    Maximum-Head-Change  Column Row Layer    Maximum-Flux-Residual          L2-NORM 
          0                 1           2             4    8     1      -0.1476242964E+00       5    8    1        -0.7888959462E+01      0.1917298839E+02
          0                 2           2             4    8     1       0.1435849017E-01       5    8    1         0.7888141303E+00      0.1916255802E+01
          0                 3           2             4    8     1      -0.9783476302E-03       5    8    1        -0.5524990510E-01      0.1342035716E+00
          0                 4           1             4    8     1       0.3836448466E-04       5    8    1         0.2227297163E-02      0.5410353201E-02

    ------------------------------------------------
       NWT REQUIRED            4 OUTER ITERATIONS 
       AND A TOTAL OF          7 INNER ITERATIONS.
    ------------------------------------------------

 NO OUTPUT CONTROL FOR STRESS PERIOD    7   TIME STEP    2
 
 SOLVING FOR HEAD 
                                                   Max.-Head-Change                         Max.-Flux-Residual
  Residual-Control   Outer-Iter.   Inner-Iter.     Column Row Layer    Maximum-Head-Change  Column Row Layer    Maximum-Flux-Residual          L2-NORM 
          0                 1           2             4    7     1       0.1262534504E-01       4    7    1         0.6614214494E+00      0.2064359557E+01
          0                 2           2             4    7     1      -0.1228713579E-02       4    7    1        -0.6617501137E-01      0.1982625622E+00
          0                 3           1             4    7     1       0.8307607249E-04       4    7    1         0.4599410475E-02      0.1370020280E-01

    ------------------------------------------------
       NWT REQUIRED            3 OUTER ITERATIONS 
       AND A TOTAL OF          5 INNER ITERATIONS.
    ------------------------------------------------

 NO OUTPUT CONTROL FOR STRESS PERIOD    7   TIME STEP    3
 
 SOLVING FOR HEAD 
                                                   Max.-Head-Change                         Max.-Flux-Residual
  Residual-Control   Outer-Iter.   Inner-Iter.     Column Row Layer    Maximum-Head-Change  Column Row Layer    Maximum-Flux-Residual          L2-NORM 
          0                 1           2             4    7     1       0.1252571285E-01       4    7    1         0.6565034372E+00      0.1987385794E+01
          0                 2           2             4    7     1      -0.1219022250E-02       4    7    1        -0.6568322145E-01      0.1905865044E+00
          0                 3           1             4    7     1       0.8241612753E-04       4    7    1         0.4564985070E-02      0.1318068098E-01

    ------------------------------------------------
       NWT REQUIRED            3 OUTER ITERATIONS 
       AND A TOTAL OF          5 INNER ITERATIONS.
    ------------------------------------------------

 NO OUTPUT CONTROL FOR STRESS PERIOD    7   TIME STEP    4
 
 SOLVING FOR HEAD 
                                                   Max.-Head-Change                         Max.-Flux-Residual
  Residual-Control   Outer-Iter.   Inner-Iter.     Column Row Layer    Maximum-Head-Change  Column Row Layer    Maximum-Flux-Residual          L2-NORM 
          0                 1           2             4    7     1       0.1242141782E-01       4    7    1         0.6513188014E+00      0.1917364981E+01
          0                 2           2             4    7     1      -0.1208877336E-02       4    7    1        -0.6516476806E-01      0.1835837530E+00
          0                 3           1             4    7     1       0.8172529505E-04       4    7    1         0.4528693215E-02      0.1270549134E-01

    ------------------------------------------------
       NWT REQUIRED            3 OUTER ITERATIONS 
       AND A TOTAL OF          5 INNER ITERATIONS.
    ------------------------------------------------

 OUTPUT CONTROL FOR STRESS PERIOD    7   TIME STEP    5
    PRINT BUDGET
    SAVE BUDGET
 UBDSV1 SAVING "         STORAGE" ON UNIT 102 AT TIME STEP  5, STRESS PERIOD   7
 UBDSV2 SAVING "   CONSTANT HEAD" ON UNIT 102 AT TIME STEP  5, STRESS PERIOD   7
 UBDSV1 SAVING "FLOW RIGHT FACE " ON UNIT 102 AT TIME STEP  5, STRESS PERIOD   7
 UBDSV1 SAVING "FLOW FRONT FACE " ON UNIT 102 AT TIME STEP  5, STRESS PERIOD   7

  HEAD DEP BOUNDS   PERIOD    7   STEP     5
 BOUNDARY      1   LAYER   1   ROW    13   COL     1   RATE   -0.296710    
 BOUNDARY      2   LAYER   1   ROW    14   COL     9   RATE    0.285718    



 STREAM LISTING     PERIOD      7   STEP        5

 LAYER ROW COL. STREAM  RCH.  FLOW INTO     FLOW TO   FLOW OUT OF   OVRLND.     DIRECT     STREAM       STREAM     STREAM     STREAM   STREAMBED  STREAMBED
                SEG.NO.  NO.  STRM. RCH.    AQUIFER    STRM. RCH.    RUNOFF     PRECIP       ET          HEAD       DEPTH      WIDTH   CONDCTNC.   GRADIENT

   1    1    1     1     1    8.3000E+01  4.4019E-01   8.2560E+01  0.000E+00  0.000E+00  0.000E+00  1.09478E+03  1.734E+00  2.066E+01  9.299E-02  1.578E+00
   1    2    2     1     2    8.2560E+01  6.8286E-01   8.1877E+01  0.000E+00  0.000E+00  0.000E+00  1.08979E+03  1.731E+00  2.062E+01  1.443E-01  1.577E+00
   1    3    3     1     3    8.1877E+01  5.8348E-01   8.1293E+01  0.000E+00  0.000E+00  0.000E+00  1.08415E+03  1.729E+00  2.057E+01  1.234E-01  1.576E+00
   1    3    4     1     4    8.1293E+01  5.3822E-01   8.0755E+01  0.000E+00  0.000E+00  0.000E+00  1.07913E+03  1.726E+00  2.052E+01  1.139E-01  1.575E+00
   1    4    5     2     1    7.8755E+01  4.2120E-01   7.8334E+01  0.000E+00  0.000E+00  0.000E+00  1.07433E+03  2.400E+00  1.200E+01  7.800E-02  1.800E+00
   1    5    6     2     2    7.8334E+01  3.2359E-01   7.8010E+01  0.000E+00  0.000E+00  0.000E+00  1.06890E+03  2.393E+00  1.200E+01  6.000E-02  1.798E+00
   1    6    6     2     3    7.8010E+01  3.2323E-01   7.7687E+01  0.000E+00  0.000E+00  0.000E+00  1.06418E+03  2.387E+00  1.200E+01  6.000E-02  1.796E+00
   1    7    6     2     4    7.7687E+01  3.2288E-01   7.7364E+01  0.000E+00  0.000E+00  0.000E+00  1.05946E+03  2.381E+00  1.200E+01  6.000E-02  1.794E+00
   1    8    6     2     5    7.7364E+01  3.2252E-01   7.7042E+01  0.000E+00  0.000E+00  0.000E+00  1.05473E+03  2.375E+00  1.200E+01  6.000E-02  1.792E+00
   1    3    5     3     1    2.0000E+00  2.8252E-01   1.7175E+00  0.000E+00  0.000E+00  0.000E+00  1.07555E+03  1.909E+00  9.636E+00  7.227E-02  1.955E+00
   1    3    6     3     2    1.7175E+00  2.4905E-01   1.4684E+00  0.000E+00  0.000E+00  0.000E+00  1.07264E+03  1.727E+00  8.909E+00  6.682E-02  1.864E+00
   1    3    7     3     3    1.4684E+00  1.9718E-01   1.2712E+00  0.000E+00  0.000E+00  0.000E+00  1.06987E+03  1.555E+00  8.218E+00  5.547E-02  1.777E+00
   1    4    8     3     4    1.2712E+00  2.2567E-01   1.0456E+00  0.000E+00  0.000E+00  0.000E+00  1.06682E+03  1.364E+00  7.455E+00  6.709E-02  1.682E+00
   1    5    8     3     5    1.0456E+00  1.5790E-01   8.8768E-01  0.000E+00  0.000E+00  0.000E+00  1.06362E+03  1.164E+00  6.655E+00  4.991E-02  1.582E+00
   1    6    8     3     6    8.8768E-01  5.5980E-02   8.3170E-01  0.000E+00  0.000E+00  0.000E+00  1.06158E+03  1.036E+00  6.145E+00  1.844E-02  1.518E+00
   1    5   10     4     1    1.0000E+01  9.0919E-02   9.9091E+00  0.000E+00  0.000E+00  0.000E+00  1.07836E+03  6.368E-01  1.000E+01  2.500E-02  1.212E+00
   1    5    9     4     2    9.9091E+00  1.8158E-01   9.7275E+00  0.000E+00  0.000E+00  0.000E+00  1.07154E+03  6.315E-01  1.000E+01  5.000E-02  1.211E+00
   1    6    8     4     3    9.7275E+00  1.2689E-01   9.6006E+00  0.000E+00  0.000E+00  0.000E+00  1.06381E+03  6.256E-01  1.000E+01  3.500E-02  1.209E+00
   1    6    8     5     1    1.0432E+01  2.2686E-01   1.0205E+01  0.000E+00  0.000E+00  0.000E+00  1.05868E+03  6.790E-01  1.542E+01  6.166E-02  1.226E+00
   1    7    7     5     2    1.0205E+01  2.7894E-01   9.9265E+00  0.000E+00  0.000E+00  0.000E+00  1.05417E+03  6.732E-01  1.519E+01  7.594E-02  1.224E+00
   1    8    7     5     3    9.9265E+00  1.9221E-01   9.7343E+00  0.000E+00  0.000E+00  0.000E+00  1.04992E+03  6.676E-01  1.497E+01  5.241E-02  1.223E+00
   1    8    6     5     4    9.7343E+00  1.3577E-01   9.5985E+00  0.000E+00  0.000E+00  0.000E+00  1.04691E+03  6.637E-01  1.482E+01  3.706E-02  1.221E+00
   1    9    6     6     1    8.6640E+01  3.3426E-01   8.6306E+01  0.000E+00  0.000E+00  0.000E+00  1.04530E+03  2.571E+00  1.200E+01  6.000E-02  1.857E+00
   1   10    7     6     2    8.6306E+01  3.3390E-01   8.5972E+01  0.000E+00  0.000E+00  0.000E+00  1.04075E+03  2.565E+00  1.200E+01  6.000E-02  1.855E+00
   1   11    7     6     3    8.5972E+01  3.3354E-01   8.5639E+01  0.000E+00  0.000E+00  0.000E+00  1.03620E+03  2.559E+00  1.200E+01  6.000E-02  1.853E+00
   1   12    7     6     4    8.5639E+01  3.3319E-01   8.5305E+01  0.000E+00  0.000E+00  0.000E+00  1.03164E+03  2.553E+00  1.200E+01  6.000E-02  1.851E+00
   1   13    7     6     5    8.5305E+01  3.1013E-02   8.5274E+01  0.000E+00  0.000E+00  0.000E+00  1.02846E+03  2.550E+00  1.200E+01  2.400E-02  4.307E-01
   1   14    9     7     1    1.5000E+02  1.3352E+00   1.4866E+02  0.000E+00  0.000E+00  0.000E+00  1.03987E+03  2.288E+00  5.529E+01  5.593E-01  7.958E-01
   1   13    8     7     2    1.4866E+02  1.8167E+00   1.4685E+02  0.000E+00  0.000E+00  0.000E+00  1.03478E+03  2.279E+00  5.526E+01  6.148E-01  9.850E-01
   1   13    7     7     3    1.4685E+02  1.4092E+00   1.4544E+02  0.000E+00  0.000E+00  0.000E+00  1.02969E+03  2.271E+00  5.522E+01  5.585E-01  8.411E-01
   1   13    6     8     1    2.3071E+02  1.0995E+00   2.2961E+02  0.000E+00  0.000E+00  0.000E+00  1.02518E+03  3.307E+00  4.796E+01  4.887E-01  7.499E-01
   1   13    5     8     2    2.2961E+02  2.8264E-01   2.2933E+02  0.000E+00  0.000E+00  0.000E+00  1.01893E+03  3.304E+00  4.790E+01  4.882E-01  1.930E-01
   1   13    4     8     3    2.2933E+02 -2.1805E+00   2.3151E+02  0.000E+00  0.000E+00  0.000E+00  1.01268E+03  3.309E+00  4.798E+01  4.889E+00 -1.487E-01
   1   13    3     8     4    2.3151E+02 -3.4278E+00   2.3494E+02  0.000E+00  0.000E+00  0.000E+00  1.00645E+03  3.324E+00  4.820E+01  4.911E+00 -2.326E-01
   1   13    2     8     5    2.3494E+02 -2.4752E+00   2.3741E+02  0.000E+00  0.000E+00  0.000E+00  1.00021E+03  3.340E+00  4.842E+01  4.935E+00 -1.672E-01
   1   13    1     8     6    2.3741E+02 -1.7302E+00   2.3914E+02  0.000E+00  0.000E+00  0.000E+00  9.95226E+02  3.351E+00  4.859E+01  2.971E+00 -1.941E-01



 UBDSV3 SAVING "           GW ET" ON UNIT  61 AT TIME STEP  5, STRESS PERIOD   7
 UBDSV3 SAVING "    UZF RECHARGE" ON UNIT  61 AT TIME STEP  5, STRESS PERIOD   7
 UBDSV3 SAVING " SURFACE LEAKAGE" ON UNIT  61 AT TIME STEP  5, STRESS PERIOD   7
 UBDSV3 SAVING "       HORT+DUNN" ON UNIT  61 AT TIME STEP  5, STRESS PERIOD   7
 UBDSV3 SAVING "  STORAGE CHANGE" ON UNIT  61 AT TIME STEP  5, STRESS PERIOD   7


UNSATURATED ZONE PACKAGE VOLUMETRIC BUDGET FOR  TIME STEP     5 STRESS PERIOD    7
  ------------------------------------------------------------------------------



     CUMULATIVE VOLUMES      L**3       RATES FOR THIS TIME STEP      L**3/T
     ------------------                 ------------------------

           IN:                                      IN:
           ---                                      ---
        INFILTRATION =    70643138.7671          INFILTRATION =           0.8481

          OUT:                                     OUT:
          ----                                     ----
              UZF ET =    14622607.5017                UZF ET =           7.0550
        UZF RECHARGE =     6202249.6768          UZF RECHARGE =           0.3050

            IN - OUT =    49818281.5886              IN - OUT =          -6.5119

          STORAGE:                                 STORAGE:
          --------                                 --------
      STORAGE CHANGE =    49830637.5767        STORAGE CHANGE =          -6.5119

 PERCENT DISCREPANCY IS DIFFERENCE BETWEEN IN-OUT MINUS CHANGE IN STORAGE
 DIVIDED BY THE AVERAGE OF IN AND OUT TIMES 100

 PERCENT DISCREPANCY =          -0.00     PERCENT DISCREPANCY =           0.00






 

            AWU WELLS     PERIOD    7   STEP   5
 AWU WELL      1   LAYER   1   ROW     6   COL     4   RATE   -9.852624E-05
 AWU WELL      2   LAYER   1   ROW     6   COL     5   RATE   -9.852624E-05
 AWU WELL      3   LAYER   1   ROW     7   COL     4   RATE   -9.852624E-05
 AWU WELL      4   LAYER   1   ROW     7   COL     5   RATE   -9.852624E-05
 AWU WELL      5   LAYER   1   ROW     8   COL     4   RATE   -9.852624E-05
 AWU WELL      6   LAYER   1   ROW     8   COL     5   RATE   -9.852624E-05
 
 

        GW IRRIGATION     PERIOD    7   STEP   5
 AWU WELL      1   ROW     6   COL     4   RATE    9.852624E-05
 AWU WELL      2   ROW     6   COL     5   RATE    9.852624E-05
 AWU WELL      3   ROW     7   COL     4   RATE    9.852624E-05
 AWU WELL      4   ROW     7   COL     5   RATE    9.852624E-05
 AWU WELL      5   ROW     8   COL     4   RATE    9.852624E-05
 AWU WELL      6   ROW     8   COL     5   RATE    9.852624E-05
 
1
  VOLUMETRIC BUDGET FOR ENTIRE MODEL AT END OF TIME STEP    5, STRESS PERIOD   7
  ------------------------------------------------------------------------------

     CUMULATIVE VOLUMES      L**3       RATES FOR THIS TIME STEP      L**3/T
     ------------------                 ------------------------

           IN:                                      IN:
           ---                                      ---
               AWU WELLS =    59062560.0000                 AWU WELLS =       5.9116E-04
      DIVERSION SEGMENTS =           0.0000        DIVERSION SEGMENTS =           0.0000
           GW IRRIGATION =           0.0000             GW IRRIGATION =           0.0000
           SW IRRIGATION =           0.0000             SW IRRIGATION =           0.0000
        SYSTEM LOSSES GW =           0.0000          SYSTEM LOSSES GW =           0.0000
        SYSTEM LOSSES SW =           0.0000          SYSTEM LOSSES SW =           0.0000

                TOTAL IN =    59062560.0000                  TOTAL IN =       5.9116E-04

          OUT:                                     OUT:
          ----                                     ----
               AWU WELLS =           0.0000                 AWU WELLS =           0.0000
      DIVERSION SEGMENTS =           0.0000        DIVERSION SEGMENTS =           0.0000
           GW IRRIGATION =    59062560.0000             GW IRRIGATION =       5.9116E-04
           SW IRRIGATION =           0.0000             SW IRRIGATION =           0.0000
        SYSTEM LOSSES GW =           0.0000          SYSTEM LOSSES GW =           0.0000
        SYSTEM LOSSES SW =           0.0000          SYSTEM LOSSES SW =           0.0000

               TOTAL OUT =    59062560.0000                 TOTAL OUT =       5.9116E-04

                IN - OUT =           0.0000                  IN - OUT =           0.0000

     PERCENT DISCREPANCY =           0.00         PERCENT DISCREPANCY =           0.00



1
  VOLUMETRIC BUDGET FOR ENTIRE MODEL AT END OF TIME STEP    5, STRESS PERIOD   7
  ------------------------------------------------------------------------------

     CUMULATIVE VOLUMES      L**3       RATES FOR THIS TIME STEP      L**3/T
     ------------------                 ------------------------

           IN:                                      IN:
           ---                                      ---
             STORAGE     =    88681040.0000               STORAGE     =           4.6365
       CONSTANT HEAD     =           0.0000         CONSTANT HEAD     =           0.0000
     HEAD DEP BOUNDS     =     3904654.7500       HEAD DEP BOUNDS     =           0.2857
      STREAM LEAKAGE     =   173864320.0000        STREAM LEAKAGE     =          13.6688
        UZF RECHARGE     =     6202248.0000          UZF RECHARGE     =           0.3050
               GW ET     =           0.0000                 GW ET     =           0.0000
     SURFACE LEAKAGE     =           0.0000       SURFACE LEAKAGE     =           0.0000
           AWU WELLS     =           0.0000             AWU WELLS     =           0.0000

                TOTAL IN =   272652256.0000                  TOTAL IN =          18.8961

          OUT:                                     OUT:
          ----                                     ----
             STORAGE     =    67576928.0000               STORAGE     =           5.5406
       CONSTANT HEAD     =           0.0000         CONSTANT HEAD     =           0.0000
     HEAD DEP BOUNDS     =     4002251.5000       HEAD DEP BOUNDS     =           0.2967
      STREAM LEAKAGE     =   136308592.0000        STREAM LEAKAGE     =           9.8137
        UZF RECHARGE     =           0.0000          UZF RECHARGE     =           0.0000
               GW ET     =     5709200.5000                 GW ET     =           3.2437
     SURFACE LEAKAGE     =           0.0000       SURFACE LEAKAGE     =           0.0000
           AWU WELLS     =    59062560.0000             AWU WELLS     =       5.9116E-04

               TOTAL OUT =   272659520.0000                 TOTAL OUT =          18.8954

                IN - OUT =       -7264.0000                  IN - OUT =       6.9427E-04

     PERCENT DISCREPANCY =          -0.00         PERCENT DISCREPANCY =           0.00






         TIME SUMMARY AT END OF TIME STEP    5 IN STRESS PERIOD    7
                    SECONDS     MINUTES      HOURS       DAYS        YEARS
                    -----------------------------------------------------------
   TIME STEP LENGTH  87600.      1460.0      24.333      1.0139     2.77588E-03
 STRESS PERIOD TIME 4.38000E+05  7300.0      121.67      5.0694     1.38794E-02
         TOTAL TIME 1.36644E+07 2.27740E+05  3795.7      158.15     0.43300    
1
 
 SOLVING FOR HEAD 
                                                   Max.-Head-Change                         Max.-Flux-Residual
  Residual-Control   Outer-Iter.   Inner-Iter.     Column Row Layer    Maximum-Head-Change  Column Row Layer    Maximum-Flux-Residual          L2-NORM 
          0                 1           2             4    7     1       0.1231318516E-01       4    7    1         0.6459070254E+00      0.1853489630E+01
          0                 2           2             4    7     1      -0.1198349382E-02       4    7    1        -0.6462359960E-01      0.1771749616E+00
          0                 3           1             4    7     1       0.8100837929E-04       4    7    1         0.4490811315E-02      0.1227030628E-01

    ------------------------------------------------
       NWT REQUIRED            3 OUTER ITERATIONS 
       AND A TOTAL OF          5 INNER ITERATIONS.
    ------------------------------------------------

 NO OUTPUT CONTROL FOR STRESS PERIOD    7   TIME STEP    6
 
 SOLVING FOR HEAD 
                                                   Max.-Head-Change                         Max.-Flux-Residual
  Residual-Control   Outer-Iter.   Inner-Iter.     Column Row Layer    Maximum-Head-Change  Column Row Layer    Maximum-Flux-Residual          L2-NORM 
          0                 1           2             4    7     1       0.1220089335E-01       4    7    1         0.6402613320E+00      0.1795053873E+01
          0                 2           2             4    7     1      -0.1187426569E-02       4    7    1        -0.6405903837E-01      0.1712947435E+00
          0                 3           1             4    7     1       0.8026457555E-04       4    7    1         0.4451291953E-02      0.1187012158E-01

    ------------------------------------------------
       NWT REQUIRED            3 OUTER ITERATIONS 
       AND A TOTAL OF          5 INNER ITERATIONS.
    ------------------------------------------------

 NO OUTPUT CONTROL FOR STRESS PERIOD    7   TIME STEP    7
 
 SOLVING FOR HEAD 
                                                   Max.-Head-Change                         Max.-Flux-Residual
  Residual-Control   Outer-Iter.   Inner-Iter.     Column Row Layer    Maximum-Head-Change  Column Row Layer    Maximum-Flux-Residual          L2-NORM 
          0                 1           2             4    7     1       0.1208550387E-01       4    7    1         0.6344346268E+00      0.1741216662E+01
          0                 2           2             4    7     1      -0.1176202426E-02       4    7    1        -0.6347637509E-01      0.1658592265E+00
          0                 3           1             4    7     1       0.7950025176E-04       4    7    1         0.4410505432E-02      0.1149991982E-01

    ------------------------------------------------
       NWT REQUIRED            3 OUTER ITERATIONS 
       AND A TOTAL OF          5 INNER ITERATIONS.
    ------------------------------------------------

 NO OUTPUT CONTROL FOR STRESS PERIOD    7   TIME STEP    8
 
 SOLVING FOR HEAD 
                                                   Max.-Head-Change                         Max.-Flux-Residual
  Residual-Control   Outer-Iter.   Inner-Iter.     Column Row Layer    Maximum-Head-Change  Column Row Layer    Maximum-Flux-Residual          L2-NORM 
          0                 1           2             4    7     1       0.1196711363E-01       4    7    1         0.6284323902E+00      0.1691236440E+01
          0                 2           2             4    7     1      -0.1164686375E-02       4    7    1        -0.6287615779E-01      0.1607980185E+00
          0                 3           1             4    7     1       0.7871605050E-04       4    7    1         0.4368490132E-02      0.1115542064E-01

    ------------------------------------------------
       NWT REQUIRED            3 OUTER ITERATIONS 
       AND A TOTAL OF          5 INNER ITERATIONS.
    ------------------------------------------------

 NO OUTPUT CONTROL FOR STRESS PERIOD    7   TIME STEP    9
 
 SOLVING FOR HEAD 
                                                   Max.-Head-Change                         Max.-Flux-Residual
  Residual-Control   Outer-Iter.   Inner-Iter.     Column Row Layer    Maximum-Head-Change  Column Row Layer    Maximum-Flux-Residual          L2-NORM 
          0                 1           2             4    8     1      -0.5427536119E-01       5    8    1        -0.2905278848E+01      0.7078339449E+01
          0                 2           2             4    8     1       0.5278808253E-02       5    8    1         0.2904882416E+00      0.7058263079E+00
          0                 3           2             4    8     1      -0.3600573031E-03       5    8    1        -0.2036715123E-01      0.4948350565E-01
          0                 4           1             4    8     1       0.1375389918E-04       5    8    1         0.8001155900E-03      0.1947319659E-02

    ------------------------------------------------
       NWT REQUIRED            4 OUTER ITERATIONS 
       AND A TOTAL OF          7 INNER ITERATIONS.
    ------------------------------------------------

 OUTPUT CONTROL FOR STRESS PERIOD    7   TIME STEP   10
    PRINT BUDGET
    SAVE BUDGET
 UBDSV1 SAVING "         STORAGE" ON UNIT 102 AT TIME STEP 10, STRESS PERIOD   7
 UBDSV2 SAVING "   CONSTANT HEAD" ON UNIT 102 AT TIME STEP 10, STRESS PERIOD   7
 UBDSV1 SAVING "FLOW RIGHT FACE " ON UNIT 102 AT TIME STEP 10, STRESS PERIOD   7
 UBDSV1 SAVING "FLOW FRONT FACE " ON UNIT 102 AT TIME STEP 10, STRESS PERIOD   7

  HEAD DEP BOUNDS   PERIOD    7   STEP    10
 BOUNDARY      1   LAYER   1   ROW    13   COL     1   RATE   -0.295620    
 BOUNDARY      2   LAYER   1   ROW    14   COL     9   RATE    0.285712    



 STREAM LISTING     PERIOD      7   STEP       10

 LAYER ROW COL. STREAM  RCH.  FLOW INTO     FLOW TO   FLOW OUT OF   OVRLND.     DIRECT     STREAM       STREAM     STREAM     STREAM   STREAMBED  STREAMBED
                SEG.NO.  NO.  STRM. RCH.    AQUIFER    STRM. RCH.    RUNOFF     PRECIP       ET          HEAD       DEPTH      WIDTH   CONDCTNC.   GRADIENT

   1    1    1     1     1    8.3000E+01  4.4019E-01   8.2560E+01  0.000E+00  0.000E+00  0.000E+00  1.09478E+03  1.734E+00  2.066E+01  9.299E-02  1.578E+00
   1    2    2     1     2    8.2560E+01  6.8286E-01   8.1877E+01  0.000E+00  0.000E+00  0.000E+00  1.08979E+03  1.731E+00  2.062E+01  1.443E-01  1.577E+00
   1    3    3     1     3    8.1877E+01  5.8348E-01   8.1293E+01  0.000E+00  0.000E+00  0.000E+00  1.08415E+03  1.729E+00  2.057E+01  1.234E-01  1.576E+00
   1    3    4     1     4    8.1293E+01  5.3822E-01   8.0755E+01  0.000E+00  0.000E+00  0.000E+00  1.07913E+03  1.726E+00  2.052E+01  1.139E-01  1.575E+00
   1    4    5     2     1    7.8755E+01  4.2120E-01   7.8334E+01  0.000E+00  0.000E+00  0.000E+00  1.07433E+03  2.400E+00  1.200E+01  7.800E-02  1.800E+00
   1    5    6     2     2    7.8334E+01  3.2359E-01   7.8010E+01  0.000E+00  0.000E+00  0.000E+00  1.06890E+03  2.393E+00  1.200E+01  6.000E-02  1.798E+00
   1    6    6     2     3    7.8010E+01  3.2323E-01   7.7687E+01  0.000E+00  0.000E+00  0.000E+00  1.06418E+03  2.387E+00  1.200E+01  6.000E-02  1.796E+00
   1    7    6     2     4    7.7687E+01  3.2288E-01   7.7364E+01  0.000E+00  0.000E+00  0.000E+00  1.05946E+03  2.381E+00  1.200E+01  6.000E-02  1.794E+00
   1    8    6     2     5    7.7364E+01  3.2252E-01   7.7042E+01  0.000E+00  0.000E+00  0.000E+00  1.05473E+03  2.375E+00  1.200E+01  6.000E-02  1.792E+00
   1    3    5     3     1    2.0000E+00  2.8252E-01   1.7175E+00  0.000E+00  0.000E+00  0.000E+00  1.07555E+03  1.909E+00  9.636E+00  7.227E-02  1.955E+00
   1    3    6     3     2    1.7175E+00  2.4905E-01   1.4684E+00  0.000E+00  0.000E+00  0.000E+00  1.07264E+03  1.727E+00  8.909E+00  6.682E-02  1.864E+00
   1    3    7     3     3    1.4684E+00  1.9718E-01   1.2712E+00  0.000E+00  0.000E+00  0.000E+00  1.06987E+03  1.555E+00  8.218E+00  5.547E-02  1.777E+00
   1    4    8     3     4    1.2712E+00  2.2567E-01   1.0456E+00  0.000E+00  0.000E+00  0.000E+00  1.06682E+03  1.364E+00  7.455E+00  6.709E-02  1.682E+00
   1    5    8     3     5    1.0456E+00  1.5790E-01   8.8768E-01  0.000E+00  0.000E+00  0.000E+00  1.06362E+03  1.164E+00  6.655E+00  4.991E-02  1.582E+00
   1    6    8     3     6    8.8768E-01  5.5980E-02   8.3170E-01  0.000E+00  0.000E+00  0.000E+00  1.06158E+03  1.036E+00  6.145E+00  1.844E-02  1.518E+00
   1    5   10     4     1    1.0000E+01  9.0919E-02   9.9091E+00  0.000E+00  0.000E+00  0.000E+00  1.07836E+03  6.368E-01  1.000E+01  2.500E-02  1.212E+00
   1    5    9     4     2    9.9091E+00  1.8158E-01   9.7275E+00  0.000E+00  0.000E+00  0.000E+00  1.07154E+03  6.315E-01  1.000E+01  5.000E-02  1.211E+00
   1    6    8     4     3    9.7275E+00  1.2689E-01   9.6006E+00  0.000E+00  0.000E+00  0.000E+00  1.06381E+03  6.256E-01  1.000E+01  3.500E-02  1.209E+00
   1    6    8     5     1    1.0432E+01  2.2686E-01   1.0205E+01  0.000E+00  0.000E+00  0.000E+00  1.05868E+03  6.790E-01  1.542E+01  6.166E-02  1.226E+00
   1    7    7     5     2    1.0205E+01  2.7894E-01   9.9265E+00  0.000E+00  0.000E+00  0.000E+00  1.05417E+03  6.732E-01  1.519E+01  7.594E-02  1.224E+00
   1    8    7     5     3    9.9265E+00  1.9221E-01   9.7343E+00  0.000E+00  0.000E+00  0.000E+00  1.04992E+03  6.676E-01  1.497E+01  5.241E-02  1.223E+00
   1    8    6     5     4    9.7343E+00  1.3577E-01   9.5985E+00  0.000E+00  0.000E+00  0.000E+00  1.04691E+03  6.637E-01  1.482E+01  3.706E-02  1.221E+00
   1    9    6     6     1    8.6640E+01  3.3426E-01   8.6306E+01  0.000E+00  0.000E+00  0.000E+00  1.04530E+03  2.571E+00  1.200E+01  6.000E-02  1.857E+00
   1   10    7     6     2    8.6306E+01  3.3390E-01   8.5972E+01  0.000E+00  0.000E+00  0.000E+00  1.04075E+03  2.565E+00  1.200E+01  6.000E-02  1.855E+00
   1   11    7     6     3    8.5972E+01  3.3354E-01   8.5639E+01  0.000E+00  0.000E+00  0.000E+00  1.03620E+03  2.559E+00  1.200E+01  6.000E-02  1.853E+00
   1   12    7     6     4    8.5639E+01  3.3319E-01   8.5305E+01  0.000E+00  0.000E+00  0.000E+00  1.03164E+03  2.553E+00  1.200E+01  6.000E-02  1.851E+00
   1   13    7     6     5    8.5305E+01  3.1070E-02   8.5274E+01  0.000E+00  0.000E+00  0.000E+00  1.02846E+03  2.550E+00  1.200E+01  2.400E-02  4.315E-01
   1   14    9     7     1    1.5000E+02  1.3351E+00   1.4866E+02  0.000E+00  0.000E+00  0.000E+00  1.03987E+03  2.288E+00  5.529E+01  5.593E-01  7.957E-01
   1   13    8     7     2    1.4866E+02  1.8162E+00   1.4685E+02  0.000E+00  0.000E+00  0.000E+00  1.03478E+03  2.279E+00  5.526E+01  6.148E-01  9.847E-01
   1   13    7     7     3    1.4685E+02  1.4105E+00   1.4544E+02  0.000E+00  0.000E+00  0.000E+00  1.02969E+03  2.271E+00  5.522E+01  5.585E-01  8.419E-01
   1   13    6     8     1    2.3071E+02  1.1041E+00   2.2961E+02  0.000E+00  0.000E+00  0.000E+00  1.02518E+03  3.307E+00  4.796E+01  4.887E-01  7.531E-01
   1   13    5     8     2    2.2961E+02  2.9431E-01   2.2931E+02  0.000E+00  0.000E+00  0.000E+00  1.01893E+03  3.304E+00  4.790E+01  4.881E-01  2.010E-01
   1   13    4     8     3    2.2931E+02 -2.0395E+00   2.3135E+02  0.000E+00  0.000E+00  0.000E+00  1.01268E+03  3.308E+00  4.797E+01  4.888E+00 -1.391E-01
   1   13    3     8     4    2.3135E+02 -3.2909E+00   2.3464E+02  0.000E+00  0.000E+00  0.000E+00  1.00645E+03  3.323E+00  4.818E+01  4.910E+00 -2.234E-01
   1   13    2     8     5    2.3464E+02 -2.3748E+00   2.3702E+02  0.000E+00  0.000E+00  0.000E+00  1.00021E+03  3.338E+00  4.840E+01  4.932E+00 -1.605E-01
   1   13    1     8     6    2.3702E+02 -1.6507E+00   2.3867E+02  0.000E+00  0.000E+00  0.000E+00  9.95223E+02  3.348E+00  4.855E+01  2.969E+00 -1.854E-01



 UBDSV3 SAVING "           GW ET" ON UNIT  61 AT TIME STEP 10, STRESS PERIOD   7
 UBDSV3 SAVING "    UZF RECHARGE" ON UNIT  61 AT TIME STEP 10, STRESS PERIOD   7
 UBDSV3 SAVING " SURFACE LEAKAGE" ON UNIT  61 AT TIME STEP 10, STRESS PERIOD   7
 UBDSV3 SAVING "       HORT+DUNN" ON UNIT  61 AT TIME STEP 10, STRESS PERIOD   7
 UBDSV3 SAVING "  STORAGE CHANGE" ON UNIT  61 AT TIME STEP 10, STRESS PERIOD   7


UNSATURATED ZONE PACKAGE VOLUMETRIC BUDGET FOR  TIME STEP    10 STRESS PERIOD    7
  ------------------------------------------------------------------------------



     CUMULATIVE VOLUMES      L**3       RATES FOR THIS TIME STEP      L**3/T
     ------------------                 ------------------------

           IN:                                      IN:
           ---                                      ---
        INFILTRATION =    72816515.3467          INFILTRATION =          21.4179

          OUT:                                     OUT:
          ----                                     ----
              UZF ET =    17277505.5838                UZF ET =           5.8074
        UZF RECHARGE =     6331057.6844          UZF RECHARGE =           0.2871

            IN - OUT =    49207952.0785              IN - OUT =          15.3234

          STORAGE:                                 STORAGE:
          --------                                 --------
      STORAGE CHANGE =    49220307.9745        STORAGE CHANGE =          15.3233

 PERCENT DISCREPANCY IS DIFFERENCE BETWEEN IN-OUT MINUS CHANGE IN STORAGE
 DIVIDED BY THE AVERAGE OF IN AND OUT TIMES 100

 PERCENT DISCREPANCY =          -0.00     PERCENT DISCREPANCY =           0.00






 

            AWU WELLS     PERIOD    7   STEP  10
 AWU WELL      1   LAYER   1   ROW     6   COL     4   RATE    -3.42840    
 AWU WELL      2   LAYER   1   ROW     6   COL     5   RATE    -3.42840    
 AWU WELL      3   LAYER   1   ROW     7   COL     4   RATE    -3.42840    
 AWU WELL      4   LAYER   1   ROW     7   COL     5   RATE    -3.42840    
 AWU WELL      5   LAYER   1   ROW     8   COL     4   RATE    -3.42840    
 AWU WELL      6   LAYER   1   ROW     8   COL     5   RATE    -3.42840    
 
 

        GW IRRIGATION     PERIOD    7   STEP  10
 AWU WELL      1   ROW     6   COL     4   RATE     3.42839    
 AWU WELL      2   ROW     6   COL     5   RATE     3.42839    
 AWU WELL      3   ROW     7   COL     4   RATE     3.42839    
 AWU WELL      4   ROW     7   COL     5   RATE     3.42839    
 AWU WELL      5   ROW     8   COL     4   RATE     3.42839    
 AWU WELL      6   ROW     8   COL     5   RATE     3.42839    
 
1
  VOLUMETRIC BUDGET FOR ENTIRE MODEL AT END OF TIME STEP   10, STRESS PERIOD   7
  ------------------------------------------------------------------------------

     CUMULATIVE VOLUMES      L**3       RATES FOR THIS TIME STEP      L**3/T
     ------------------                 ------------------------

           IN:                                      IN:
           ---                                      ---
               AWU WELLS =    60864732.0000                 AWU WELLS =          20.5704
      DIVERSION SEGMENTS =           0.0000        DIVERSION SEGMENTS =           0.0000
           GW IRRIGATION =           0.0000             GW IRRIGATION =           0.0000
           SW IRRIGATION =           0.0000             SW IRRIGATION =           0.0000
        SYSTEM LOSSES GW =           0.0000          SYSTEM LOSSES GW =           0.0000
        SYSTEM LOSSES SW =           0.0000          SYSTEM LOSSES SW =           0.0000

                TOTAL IN =    60864732.0000                  TOTAL IN =          20.5704

          OUT:                                     OUT:
          ----                                     ----
               AWU WELLS =           0.0000                 AWU WELLS =           0.0000
      DIVERSION SEGMENTS =           0.0000        DIVERSION SEGMENTS =           0.0000
           GW IRRIGATION =    60864732.0000             GW IRRIGATION =          20.5704
           SW IRRIGATION =           0.0000             SW IRRIGATION =           0.0000
        SYSTEM LOSSES GW =           0.0000          SYSTEM LOSSES GW =           0.0000
        SYSTEM LOSSES SW =           0.0000          SYSTEM LOSSES SW =           0.0000

               TOTAL OUT =    60864732.0000                 TOTAL OUT =          20.5704

                IN - OUT =           0.0000                  IN - OUT =           0.0000

     PERCENT DISCREPANCY =           0.00         PERCENT DISCREPANCY =           0.00



1
  VOLUMETRIC BUDGET FOR ENTIRE MODEL AT END OF TIME STEP   10, STRESS PERIOD   7
  ------------------------------------------------------------------------------

     CUMULATIVE VOLUMES      L**3       RATES FOR THIS TIME STEP      L**3/T
     ------------------                 ------------------------

           IN:                                      IN:
           ---                                      ---
             STORAGE     =    91957040.0000               STORAGE     =          20.9283
       CONSTANT HEAD     =           0.0000         CONSTANT HEAD     =           0.0000
     HEAD DEP BOUNDS     =     4029797.5000       HEAD DEP BOUNDS     =           0.2857
      STREAM LEAKAGE     =   179855840.0000        STREAM LEAKAGE     =          13.6859
        UZF RECHARGE     =     6331056.0000          UZF RECHARGE     =           0.2871
               GW ET     =           0.0000                 GW ET     =           0.0000
     SURFACE LEAKAGE     =           0.0000       SURFACE LEAKAGE     =           0.0000
           AWU WELLS     =           0.0000             AWU WELLS     =           0.0000

                TOTAL IN =   282173760.0000                  TOTAL IN =          35.1870

          OUT:                                     OUT:
          ----                                     ----
             STORAGE     =    69577136.0000               STORAGE     =           1.7342
       CONSTANT HEAD     =           0.0000         CONSTANT HEAD     =           0.0000
     HEAD DEP BOUNDS     =     4131913.7500       HEAD DEP BOUNDS     =           0.2956
      STREAM LEAKAGE     =   140479936.0000        STREAM LEAKAGE     =           9.3559
        UZF RECHARGE     =           0.0000          UZF RECHARGE     =           0.0000
               GW ET     =     7127106.0000                 GW ET     =           3.2308
     SURFACE LEAKAGE     =           0.0000       SURFACE LEAKAGE     =           0.0000
           AWU WELLS     =    60864732.0000             AWU WELLS     =          20.5704

               TOTAL OUT =   282180832.0000                 TOTAL OUT =          35.1870

                IN - OUT =       -7072.0000                  IN - OUT =      -2.2888E-05

     PERCENT DISCREPANCY =          -0.00         PERCENT DISCREPANCY =          -0.00






         TIME SUMMARY AT END OF TIME STEP   10 IN STRESS PERIOD    7
                    SECONDS     MINUTES      HOURS       DAYS        YEARS
                    -----------------------------------------------------------
   TIME STEP LENGTH  87600.      1460.0      24.333      1.0139     2.77588E-03
 STRESS PERIOD TIME 8.76000E+05  14600.      243.33      10.139     2.77588E-02
         TOTAL TIME 1.41024E+07 2.35040E+05  3917.3      163.22     0.44688    
1
 
 SOLVING FOR HEAD 
                                                   Max.-Head-Change                         Max.-Flux-Residual
  Residual-Control   Outer-Iter.   Inner-Iter.     Column Row Layer    Maximum-Head-Change  Column Row Layer    Maximum-Flux-Residual          L2-NORM 
          0                 1           2             4    7     1       0.1207168621E-01       4    7    1         0.6325980501E+00      0.1748833538E+01
          0                 2           2             4    7     1      -0.1174857857E-02       4    7    1        -0.6329268396E-01      0.1671539802E+00
          0                 3           1             4    7     1       0.7940869636E-04       4    7    1         0.4397647361E-02      0.1161596448E-01

    ------------------------------------------------
       NWT REQUIRED            3 OUTER ITERATIONS 
       AND A TOTAL OF          5 INNER ITERATIONS.
    ------------------------------------------------

 NO OUTPUT CONTROL FOR STRESS PERIOD    7   TIME STEP   11
 
 SOLVING FOR HEAD 
                                                   Max.-Head-Change                         Max.-Flux-Residual
  Residual-Control   Outer-Iter.   Inner-Iter.     Column Row Layer    Maximum-Head-Change  Column Row Layer    Maximum-Flux-Residual          L2-NORM 
          0                 1           2             4    7     1       0.1197331144E-01       4    7    1         0.6277156708E+00      0.1702933137E+01
          0                 2           2             4    7     1      -0.1165288811E-02       4    7    1        -0.6280445542E-01      0.1624723145E+00
          0                 3           1             4    7     1       0.7875707875E-04       4    7    1         0.4363471270E-02      0.1129482292E-01

    ------------------------------------------------
       NWT REQUIRED            3 OUTER ITERATIONS 
       AND A TOTAL OF          5 INNER ITERATIONS.
    ------------------------------------------------

 NO OUTPUT CONTROL FOR STRESS PERIOD    7   TIME STEP   12
 
 SOLVING FOR HEAD 
                                                   Max.-Head-Change                         Max.-Flux-Residual
  Residual-Control   Outer-Iter.   Inner-Iter.     Column Row Layer    Maximum-Head-Change  Column Row Layer    Maximum-Flux-Residual          L2-NORM 
          0                 1           2             4    7     1       0.1187081998E-01       4    7    1         0.6225962866E+00      0.1660093547E+01
          0                 2           2             4    7     1      -0.1155319309E-02       4    7    1        -0.6229252536E-01      0.1580902455E+00
          0                 3           1             4    7     1       0.7807819141E-04       4    7    1         0.4327636064E-02      0.1099320615E-01

    ------------------------------------------------
       NWT REQUIRED            3 OUTER ITERATIONS 
       AND A TOTAL OF          5 INNER ITERATIONS.
    ------------------------------------------------

 NO OUTPUT CONTROL FOR STRESS PERIOD    7   TIME STEP   13
 
 SOLVING FOR HEAD 
                                                   Max.-Head-Change                         Max.-Flux-Residual
  Residual-Control   Outer-Iter.   Inner-Iter.     Column Row Layer    Maximum-Head-Change  Column Row Layer    Maximum-Flux-Residual          L2-NORM 
          0                 1           2             4    7     1       0.1176462815E-01       4    7    1         0.6172632991E+00      0.1620012930E+01
          0                 2           2             4    7     1      -0.1144989847E-02       4    7    1        -0.6175923406E-01      0.1539801950E+00
          0                 3           1             4    7     1       0.7737479253E-04       4    7    1         0.4290305592E-02      0.1071037425E-01

    ------------------------------------------------
       NWT REQUIRED            3 OUTER ITERATIONS 
       AND A TOTAL OF          5 INNER ITERATIONS.
    ------------------------------------------------

 NO OUTPUT CONTROL FOR STRESS PERIOD    7   TIME STEP   14
 
 SOLVING FOR HEAD 
                                                   Max.-Head-Change                         Max.-Flux-Residual
  Residual-Control   Outer-Iter.   Inner-Iter.     Column Row Layer    Maximum-Head-Change  Column Row Layer    Maximum-Flux-Residual          L2-NORM 
          0                 1           2             4    7     1       0.1165540274E-01       4    7    1         0.6117531131E+00      0.1582423089E+01
          0                 2           2             4    7     1      -0.1134365288E-02       4    7    1        -0.6120822204E-01      0.1501158080E+00
          0                 3           1             4    7     1       0.7665129820E-04       4    7    1         0.4251734657E-02      0.1044441381E-01

    ------------------------------------------------
       NWT REQUIRED            3 OUTER ITERATIONS 
       AND A TOTAL OF          5 INNER ITERATIONS.
    ------------------------------------------------

 OUTPUT CONTROL FOR STRESS PERIOD    7   TIME STEP   15
    PRINT BUDGET
    SAVE BUDGET
 UBDSV1 SAVING "         STORAGE" ON UNIT 102 AT TIME STEP 15, STRESS PERIOD   7
 UBDSV2 SAVING "   CONSTANT HEAD" ON UNIT 102 AT TIME STEP 15, STRESS PERIOD   7
 UBDSV1 SAVING "FLOW RIGHT FACE " ON UNIT 102 AT TIME STEP 15, STRESS PERIOD   7
 UBDSV1 SAVING "FLOW FRONT FACE " ON UNIT 102 AT TIME STEP 15, STRESS PERIOD   7

  HEAD DEP BOUNDS   PERIOD    7   STEP    15
 BOUNDARY      1   LAYER   1   ROW    13   COL     1   RATE   -0.294787    
 BOUNDARY      2   LAYER   1   ROW    14   COL     9   RATE    0.285706    



 STREAM LISTING     PERIOD      7   STEP       15

 LAYER ROW COL. STREAM  RCH.  FLOW INTO     FLOW TO   FLOW OUT OF   OVRLND.     DIRECT     STREAM       STREAM     STREAM     STREAM   STREAMBED  STREAMBED
                SEG.NO.  NO.  STRM. RCH.    AQUIFER    STRM. RCH.    RUNOFF     PRECIP       ET          HEAD       DEPTH      WIDTH   CONDCTNC.   GRADIENT

   1    1    1     1     1    8.3000E+01  4.4019E-01   8.2560E+01  0.000E+00  0.000E+00  0.000E+00  1.09478E+03  1.734E+00  2.066E+01  9.299E-02  1.578E+00
   1    2    2     1     2    8.2560E+01  6.8286E-01   8.1877E+01  0.000E+00  0.000E+00  0.000E+00  1.08979E+03  1.731E+00  2.062E+01  1.443E-01  1.577E+00
   1    3    3     1     3    8.1877E+01  5.8348E-01   8.1293E+01  0.000E+00  0.000E+00  0.000E+00  1.08415E+03  1.729E+00  2.057E+01  1.234E-01  1.576E+00
   1    3    4     1     4    8.1293E+01  5.3822E-01   8.0755E+01  0.000E+00  0.000E+00  0.000E+00  1.07913E+03  1.726E+00  2.052E+01  1.139E-01  1.575E+00
   1    4    5     2     1    7.8755E+01  4.2120E-01   7.8334E+01  0.000E+00  0.000E+00  0.000E+00  1.07433E+03  2.400E+00  1.200E+01  7.800E-02  1.800E+00
   1    5    6     2     2    7.8334E+01  3.2359E-01   7.8010E+01  0.000E+00  0.000E+00  0.000E+00  1.06890E+03  2.393E+00  1.200E+01  6.000E-02  1.798E+00
   1    6    6     2     3    7.8010E+01  3.2323E-01   7.7687E+01  0.000E+00  0.000E+00  0.000E+00  1.06418E+03  2.387E+00  1.200E+01  6.000E-02  1.796E+00
   1    7    6     2     4    7.7687E+01  3.2288E-01   7.7364E+01  0.000E+00  0.000E+00  0.000E+00  1.05946E+03  2.381E+00  1.200E+01  6.000E-02  1.794E+00
   1    8    6     2     5    7.7364E+01  3.2252E-01   7.7042E+01  0.000E+00  0.000E+00  0.000E+00  1.05473E+03  2.375E+00  1.200E+01  6.000E-02  1.792E+00
   1    3    5     3     1    2.0000E+00  2.8252E-01   1.7175E+00  0.000E+00  0.000E+00  0.000E+00  1.07555E+03  1.909E+00  9.636E+00  7.227E-02  1.955E+00
   1    3    6     3     2    1.7175E+00  2.4905E-01   1.4684E+00  0.000E+00  0.000E+00  0.000E+00  1.07264E+03  1.727E+00  8.909E+00  6.682E-02  1.864E+00
   1    3    7     3     3    1.4684E+00  1.9718E-01   1.2712E+00  0.000E+00  0.000E+00  0.000E+00  1.06987E+03  1.555E+00  8.218E+00  5.547E-02  1.777E+00
   1    4    8     3     4    1.2712E+00  2.2567E-01   1.0456E+00  0.000E+00  0.000E+00  0.000E+00  1.06682E+03  1.364E+00  7.455E+00  6.709E-02  1.682E+00
   1    5    8     3     5    1.0456E+00  1.5790E-01   8.8768E-01  0.000E+00  0.000E+00  0.000E+00  1.06362E+03  1.164E+00  6.655E+00  4.991E-02  1.582E+00
   1    6    8     3     6    8.8768E-01  5.5980E-02   8.3170E-01  0.000E+00  0.000E+00  0.000E+00  1.06158E+03  1.036E+00  6.145E+00  1.844E-02  1.518E+00
   1    5   10     4     1    1.0000E+01  9.0919E-02   9.9091E+00  0.000E+00  0.000E+00  0.000E+00  1.07836E+03  6.368E-01  1.000E+01  2.500E-02  1.212E+00
   1    5    9     4     2    9.9091E+00  1.8158E-01   9.7275E+00  0.000E+00  0.000E+00  0.000E+00  1.07154E+03  6.315E-01  1.000E+01  5.000E-02  1.211E+00
   1    6    8     4     3    9.7275E+00  1.2689E-01   9.6006E+00  0.000E+00  0.000E+00  0.000E+00  1.06381E+03  6.256E-01  1.000E+01  3.500E-02  1.209E+00
   1    6    8     5     1    1.0432E+01  2.2686E-01   1.0205E+01  0.000E+00  0.000E+00  0.000E+00  1.05868E+03  6.790E-01  1.542E+01  6.166E-02  1.226E+00
   1    7    7     5     2    1.0205E+01  2.7894E-01   9.9265E+00  0.000E+00  0.000E+00  0.000E+00  1.05417E+03  6.732E-01  1.519E+01  7.594E-02  1.224E+00
   1    8    7     5     3    9.9265E+00  1.9221E-01   9.7343E+00  0.000E+00  0.000E+00  0.000E+00  1.04992E+03  6.676E-01  1.497E+01  5.241E-02  1.223E+00
   1    8    6     5     4    9.7343E+00  1.3577E-01   9.5985E+00  0.000E+00  0.000E+00  0.000E+00  1.04691E+03  6.637E-01  1.482E+01  3.706E-02  1.221E+00
   1    9    6     6     1    8.6640E+01  3.3426E-01   8.6306E+01  0.000E+00  0.000E+00  0.000E+00  1.04530E+03  2.571E+00  1.200E+01  6.000E-02  1.857E+00
   1   10    7     6     2    8.6306E+01  3.3390E-01   8.5972E+01  0.000E+00  0.000E+00  0.000E+00  1.04075E+03  2.565E+00  1.200E+01  6.000E-02  1.855E+00
   1   11    7     6     3    8.5972E+01  3.3354E-01   8.5639E+01  0.000E+00  0.000E+00  0.000E+00  1.03620E+03  2.559E+00  1.200E+01  6.000E-02  1.853E+00
   1   12    7     6     4    8.5639E+01  3.3319E-01   8.5305E+01  0.000E+00  0.000E+00  0.000E+00  1.03164E+03  2.553E+00  1.200E+01  6.000E-02  1.851E+00
   1   13    7     6     5    8.5305E+01  3.1121E-02   8.5274E+01  0.000E+00  0.000E+00  0.000E+00  1.02846E+03  2.550E+00  1.200E+01  2.400E-02  4.322E-01
   1   14    9     7     1    1.5000E+02  1.3350E+00   1.4866E+02  0.000E+00  0.000E+00  0.000E+00  1.03987E+03  2.288E+00  5.529E+01  5.593E-01  7.957E-01
   1   13    8     7     2    1.4866E+02  1.8158E+00   1.4685E+02  0.000E+00  0.000E+00  0.000E+00  1.03478E+03  2.279E+00  5.526E+01  6.148E-01  9.845E-01
   1   13    7     7     3    1.4685E+02  1.4117E+00   1.4544E+02  0.000E+00  0.000E+00  0.000E+00  1.02969E+03  2.271E+00  5.522E+01  5.585E-01  8.426E-01
   1   13    6     8     1    2.3071E+02  1.1082E+00   2.2960E+02  0.000E+00  0.000E+00  0.000E+00  1.02518E+03  3.307E+00  4.796E+01  4.887E-01  7.559E-01
   1   13    5     8     2    2.2960E+02  3.0409E-01   2.2930E+02  0.000E+00  0.000E+00  0.000E+00  1.01893E+03  3.304E+00  4.790E+01  4.881E-01  2.077E-01
   1   13    4     8     3    2.2930E+02 -1.9528E+00   2.3125E+02  0.000E+00  0.000E+00  0.000E+00  1.01268E+03  3.308E+00  4.797E+01  4.888E+00 -1.332E-01
   1   13    3     8     4    2.3125E+02 -3.2063E+00   2.3446E+02  0.000E+00  0.000E+00  0.000E+00  1.00645E+03  3.322E+00  4.817E+01  4.908E+00 -2.177E-01
   1   13    2     8     5    2.3446E+02 -2.3066E+00   2.3677E+02  0.000E+00  0.000E+00  0.000E+00  1.00021E+03  3.337E+00  4.838E+01  4.930E+00 -1.560E-01
   1   13    1     8     6    2.3677E+02 -1.5894E+00   2.3835E+02  0.000E+00  0.000E+00  0.000E+00  9.95222E+02  3.347E+00  4.853E+01  2.967E+00 -1.786E-01



 UBDSV3 SAVING "           GW ET" ON UNIT  61 AT TIME STEP 15, STRESS PERIOD   7
 UBDSV3 SAVING "    UZF RECHARGE" ON UNIT  61 AT TIME STEP 15, STRESS PERIOD   7
 UBDSV3 SAVING " SURFACE LEAKAGE" ON UNIT  61 AT TIME STEP 15, STRESS PERIOD   7
 UBDSV3 SAVING "       HORT+DUNN" ON UNIT  61 AT TIME STEP 15, STRESS PERIOD   7
 UBDSV3 SAVING "  STORAGE CHANGE" ON UNIT  61 AT TIME STEP 15, STRESS PERIOD   7


UNSATURATED ZONE PACKAGE VOLUMETRIC BUDGET FOR  TIME STEP    15 STRESS PERIOD    7
  ------------------------------------------------------------------------------



     CUMULATIVE VOLUMES      L**3       RATES FOR THIS TIME STEP      L**3/T
     ------------------                 ------------------------

           IN:                                      IN:
           ---                                      ---
        INFILTRATION =    73187979.2743          INFILTRATION =           0.8481

          OUT:                                     OUT:
          ----                                     ----
              UZF ET =    19707933.6733                UZF ET =           5.3847
        UZF RECHARGE =     6452874.6728          UZF RECHARGE =           0.2728

            IN - OUT =    47027170.9281              IN - OUT =          -4.8094

          STORAGE:                                 STORAGE:
          --------                                 --------
      STORAGE CHANGE =    47040640.0936        STORAGE CHANGE =          -4.8094

 PERCENT DISCREPANCY IS DIFFERENCE BETWEEN IN-OUT MINUS CHANGE IN STORAGE
 DIVIDED BY THE AVERAGE OF IN AND OUT TIMES 100

 PERCENT DISCREPANCY =          -0.00     PERCENT DISCREPANCY =           0.00






 

            AWU WELLS     PERIOD    7   STEP  15
 AWU WELL      1   LAYER   1   ROW     6   COL     4   RATE   -9.852624E-05
 AWU WELL      2   LAYER   1   ROW     6   COL     5   RATE   -9.852624E-05
 AWU WELL      3   LAYER   1   ROW     7   COL     4   RATE   -9.852624E-05
 AWU WELL      4   LAYER   1   ROW     7   COL     5   RATE   -9.852624E-05
 AWU WELL      5   LAYER   1   ROW     8   COL     4   RATE   -9.852624E-05
 AWU WELL      6   LAYER   1   ROW     8   COL     5   RATE   -9.852624E-05
 
 

        GW IRRIGATION     PERIOD    7   STEP  15
 AWU WELL      1   ROW     6   COL     4   RATE    9.852624E-05
 AWU WELL      2   ROW     6   COL     5   RATE    9.852624E-05
 AWU WELL      3   ROW     7   COL     4   RATE    9.852624E-05
 AWU WELL      4   ROW     7   COL     5   RATE    9.852624E-05
 AWU WELL      5   ROW     8   COL     4   RATE    9.852624E-05
 AWU WELL      6   ROW     8   COL     5   RATE    9.852624E-05
 
1
  VOLUMETRIC BUDGET FOR ENTIRE MODEL AT END OF TIME STEP   15, STRESS PERIOD   7
  ------------------------------------------------------------------------------

     CUMULATIVE VOLUMES      L**3       RATES FOR THIS TIME STEP      L**3/T
     ------------------                 ------------------------

           IN:                                      IN:
           ---                                      ---
               AWU WELLS =    60864992.0000                 AWU WELLS =       5.9116E-04
      DIVERSION SEGMENTS =           0.0000        DIVERSION SEGMENTS =           0.0000
           GW IRRIGATION =           0.0000             GW IRRIGATION =           0.0000
           SW IRRIGATION =           0.0000             SW IRRIGATION =           0.0000
        SYSTEM LOSSES GW =           0.0000          SYSTEM LOSSES GW =           0.0000
        SYSTEM LOSSES SW =           0.0000          SYSTEM LOSSES SW =           0.0000

                TOTAL IN =    60864992.0000                  TOTAL IN =       5.9116E-04

          OUT:                                     OUT:
          ----                                     ----
               AWU WELLS =           0.0000                 AWU WELLS =           0.0000
      DIVERSION SEGMENTS =           0.0000        DIVERSION SEGMENTS =           0.0000
           GW IRRIGATION =    60864992.0000             GW IRRIGATION =       5.9116E-04
           SW IRRIGATION =           0.0000             SW IRRIGATION =           0.0000
        SYSTEM LOSSES GW =           0.0000          SYSTEM LOSSES GW =           0.0000
        SYSTEM LOSSES SW =           0.0000          SYSTEM LOSSES SW =           0.0000

               TOTAL OUT =    60864992.0000                 TOTAL OUT =       5.9116E-04

                IN - OUT =           0.0000                  IN - OUT =           0.0000

     PERCENT DISCREPANCY =           0.00         PERCENT DISCREPANCY =           0.00



1
  VOLUMETRIC BUDGET FOR ENTIRE MODEL AT END OF TIME STEP   15, STRESS PERIOD   7
  ------------------------------------------------------------------------------

     CUMULATIVE VOLUMES      L**3       RATES FOR THIS TIME STEP      L**3/T
     ------------------                 ------------------------

           IN:                                      IN:
           ---                                      ---
             STORAGE     =    93520768.0000               STORAGE     =           3.2809
       CONSTANT HEAD     =           0.0000         CONSTANT HEAD     =           0.0000
     HEAD DEP BOUNDS     =     4154937.7500       HEAD DEP BOUNDS     =           0.2857
      STREAM LEAKAGE     =   185854176.0000        STREAM LEAKAGE     =          13.7005
        UZF RECHARGE     =     6452873.0000          UZF RECHARGE     =           0.2728
               GW ET     =           0.0000                 GW ET     =           0.0000
     SURFACE LEAKAGE     =           0.0000       SURFACE LEAKAGE     =           0.0000
           AWU WELLS     =           0.0000             AWU WELLS     =           0.0000

                TOTAL IN =   289982752.0000                  TOTAL IN =          17.5399

          OUT:                                     OUT:
          ----                                     ----
             STORAGE     =    71831136.0000               STORAGE     =           4.9738
       CONSTANT HEAD     =           0.0000         CONSTANT HEAD     =           0.0000
     HEAD DEP BOUNDS     =     4261168.5000       HEAD DEP BOUNDS     =           0.2948
      STREAM LEAKAGE     =   144494400.0000        STREAM LEAKAGE     =           9.0550
        UZF RECHARGE     =           0.0000          UZF RECHARGE     =           0.0000
               GW ET     =     8537965.0000                 GW ET     =           3.2154
     SURFACE LEAKAGE     =           0.0000       SURFACE LEAKAGE     =           0.0000
           AWU WELLS     =    60864992.0000             AWU WELLS     =       5.9116E-04

               TOTAL OUT =   289989664.0000                 TOTAL OUT =          17.5396

                IN - OUT =       -6912.0000                  IN - OUT =       3.1281E-04

     PERCENT DISCREPANCY =          -0.00         PERCENT DISCREPANCY =           0.00






         TIME SUMMARY AT END OF TIME STEP   15 IN STRESS PERIOD    7
                    SECONDS     MINUTES      HOURS       DAYS        YEARS
                    -----------------------------------------------------------
   TIME STEP LENGTH  87600.      1460.0      24.333      1.0139     2.77588E-03
 STRESS PERIOD TIME 1.31400E+06  21900.      365.00      15.208     4.16381E-02
         TOTAL TIME 1.45404E+07 2.42340E+05  4039.0      168.29     0.46076    
1
 
 SOLVING FOR HEAD 
                                                   Max.-Head-Change                         Max.-Flux-Residual
  Residual-Control   Outer-Iter.   Inner-Iter.     Column Row Layer    Maximum-Head-Change  Column Row Layer    Maximum-Flux-Residual          L2-NORM 
          0                 1           2             4    7     1       0.1154324230E-01       4    7    1         0.6060707205E+00      0.1547098666E+01
          0                 2           2             4    7     1      -0.1123455220E-02       4    7    1        -0.6063998859E-01      0.1464740261E+00
          0                 3           1             4    7     1       0.7590836258E-04       4    7    1         0.4211958247E-02      0.1019282369E-01

    ------------------------------------------------
       NWT REQUIRED            3 OUTER ITERATIONS 
       AND A TOTAL OF          5 INNER ITERATIONS.
    ------------------------------------------------

 NO OUTPUT CONTROL FOR STRESS PERIOD    7   TIME STEP   16
 
 SOLVING FOR HEAD 
                                                   Max.-Head-Change                         Max.-Flux-Residual
  Residual-Control   Outer-Iter.   Inner-Iter.     Column Row Layer    Maximum-Head-Change  Column Row Layer    Maximum-Flux-Residual          L2-NORM 
          0                 1           2             4    7     1       0.1142849985E-01       4    7    1         0.6002360385E+00      0.1513811276E+01
          0                 2           2             4    7     1      -0.1112293982E-02       4    7    1        -0.6005652548E-01      0.1430351350E+00
          0                 3           1             4    7     1       0.7514832305E-04       4    7    1         0.4171115761E-02      0.9955762325E-02

    ------------------------------------------------
       NWT REQUIRED            3 OUTER ITERATIONS 
       AND A TOTAL OF          5 INNER ITERATIONS.
    ------------------------------------------------

 NO OUTPUT CONTROL FOR STRESS PERIOD    7   TIME STEP   17
 
 SOLVING FOR HEAD 
                                                   Max.-Head-Change                         Max.-Flux-Residual
  Residual-Control   Outer-Iter.   Inner-Iter.     Column Row Layer    Maximum-Head-Change  Column Row Layer    Maximum-Flux-Residual          L2-NORM 
          0                 1           2             5    8     1      -0.3900095831E-01       5    8    1        -0.2089478163E+01      0.5062579863E+01
          0                 2           2             5    8     1       0.3793080850E-02       5    8    1         0.2089113759E+00      0.5037427365E+00
          0                 3           2             5    8     1      -0.2588765397E-03       5    8    1        -0.1465673787E-01      0.3534805940E-01
          0                 4           1             5    8     1       0.9735405636E-05       5    8    1         0.5665594940E-03      0.1371262550E-02

    ------------------------------------------------
       NWT REQUIRED            4 OUTER ITERATIONS 
       AND A TOTAL OF          7 INNER ITERATIONS.
    ------------------------------------------------

 NO OUTPUT CONTROL FOR STRESS PERIOD    7   TIME STEP   18
 
 SOLVING FOR HEAD 
                                                   Max.-Head-Change                         Max.-Flux-Residual
  Residual-Control   Outer-Iter.   Inner-Iter.     Column Row Layer    Maximum-Head-Change  Column Row Layer    Maximum-Flux-Residual          L2-NORM 
          0                 1           2             4    7     1       0.1145485231E-01       4    7    1         0.6006739231E+00      0.1563014620E+01
          0                 2           2             4    7     1      -0.1114856971E-02       4    7    1        -0.6010028738E-01      0.1483884995E+00
          0                 3           1             4    7     1       0.7532285681E-04       4    7    1         0.4174179353E-02      0.1033395549E-01

    ------------------------------------------------
       NWT REQUIRED            3 OUTER ITERATIONS 
       AND A TOTAL OF          5 INNER ITERATIONS.
    ------------------------------------------------

 NO OUTPUT CONTROL FOR STRESS PERIOD    7   TIME STEP   19
 
 SOLVING FOR HEAD 
                                                   Max.-Head-Change                         Max.-Flux-Residual
  Residual-Control   Outer-Iter.   Inner-Iter.     Column Row Layer    Maximum-Head-Change  Column Row Layer    Maximum-Flux-Residual          L2-NORM 
          0                 1           2             4    7     1       0.1135443349E-01       4    7    1         0.5956349955E+00      0.1529809457E+01
          0                 2           2             4    7     1      -0.1105089057E-02       4    7    1        -0.5959640145E-01      0.1449610497E+00
          0                 3           1             4    7     1       0.7465769723E-04       4    7    1         0.4138907259E-02      0.1009650200E-01

    ------------------------------------------------
       NWT REQUIRED            3 OUTER ITERATIONS 
       AND A TOTAL OF          5 INNER ITERATIONS.
    ------------------------------------------------

 NO OUTPUT CONTROL FOR STRESS PERIOD    7   TIME STEP   20
 
 SOLVING FOR HEAD 
                                                   Max.-Head-Change                         Max.-Flux-Residual
  Residual-Control   Outer-Iter.   Inner-Iter.     Column Row Layer    Maximum-Head-Change  Column Row Layer    Maximum-Flux-Residual          L2-NORM 
          0                 1           2             4    7     1       0.1125107463E-01       4    7    1         0.5904243638E+00      0.1498362187E+01
          0                 2           2             4    7     1      -0.1095035146E-02       4    7    1        -0.5907534436E-01      0.1416724616E+00
          0                 3           1             4    7     1       0.7397306251E-04       4    7    1         0.4102433187E-02      0.9868644347E-02

    ------------------------------------------------
       NWT REQUIRED            3 OUTER ITERATIONS 
       AND A TOTAL OF          5 INNER ITERATIONS.
    ------------------------------------------------

 NO OUTPUT CONTROL FOR STRESS PERIOD    7   TIME STEP   21
 
 SOLVING FOR HEAD 
                                                   Max.-Head-Change                         Max.-Flux-Residual
  Residual-Control   Outer-Iter.   Inner-Iter.     Column Row Layer    Maximum-Head-Change  Column Row Layer    Maximum-Flux-Residual          L2-NORM 
          0                 1           2             4    7     1       0.1114484589E-01       4    7    1         0.5850463783E+00      0.1468558451E+01
          0                 2           2             4    7     1      -0.1084702063E-02       4    7    1        -0.5853755115E-01      0.1386167835E+00
          0                 3           1             4    7     1       0.7326941725E-04       4    7    1         0.4064787591E-02      0.9656769914E-02

    ------------------------------------------------
       NWT REQUIRED            3 OUTER ITERATIONS 
       AND A TOTAL OF          5 INNER ITERATIONS.
    ------------------------------------------------

 NO OUTPUT CONTROL FOR STRESS PERIOD    7   TIME STEP   22
 
 SOLVING FOR HEAD 
                                                   Max.-Head-Change                         Max.-Flux-Residual
  Residual-Control   Outer-Iter.   Inner-Iter.     Column Row Layer    Maximum-Head-Change  Column Row Layer    Maximum-Flux-Residual          L2-NORM 
          0                 1           2             4    7     1       0.1103609568E-01       4    7    1         0.5795194834E+00      0.1440249797E+01
          0                 2           2             4    7     1      -0.1074123700E-02       4    7    1        -0.5798486630E-01      0.1356809459E+00
          0                 3           1             4    7     1       0.7254906973E-04       4    7    1         0.4026099600E-02      0.9453141436E-02

    ------------------------------------------------
       NWT REQUIRED            3 OUTER ITERATIONS 
       AND A TOTAL OF          5 INNER ITERATIONS.
    ------------------------------------------------

 NO OUTPUT CONTROL FOR STRESS PERIOD    7   TIME STEP   23
 
 SOLVING FOR HEAD 
                                                   Max.-Head-Change                         Max.-Flux-Residual
  Residual-Control   Outer-Iter.   Inner-Iter.     Column Row Layer    Maximum-Head-Change  Column Row Layer    Maximum-Flux-Residual          L2-NORM 
          0                 1           2             4    7     1       0.1092513602E-01       4    7    1         0.5738617573E+00      0.1413306573E+01
          0                 2           2             4    7     1      -0.1063330408E-02       4    7    1        -0.5741909772E-01      0.1328830380E+00
          0                 3           1             4    7     1       0.7181408538E-04       4    7    1         0.3986495738E-02      0.9259122551E-02

    ------------------------------------------------
       NWT REQUIRED            3 OUTER ITERATIONS 
       AND A TOTAL OF          5 INNER ITERATIONS.
    ------------------------------------------------

 NO OUTPUT CONTROL FOR STRESS PERIOD    7   TIME STEP   24
 
 SOLVING FOR HEAD 
                                                   Max.-Head-Change                         Max.-Flux-Residual
  Residual-Control   Outer-Iter.   Inner-Iter.     Column Row Layer    Maximum-Head-Change  Column Row Layer    Maximum-Flux-Residual          L2-NORM 
          0                 1           2             4    7     1       0.1081227068E-01       4    7    1         0.5680893890E+00      0.1387622718E+01
          0                 2           2             4    7     1      -0.1052351738E-02       4    7    1        -0.5684186438E-01      0.1302054420E+00
          0                 3           1             4    7     1       0.7106647853E-04       4    7    1         0.3946089350E-02      0.9073387706E-02

    ------------------------------------------------
       NWT REQUIRED            3 OUTER ITERATIONS 
       AND A TOTAL OF          5 INNER ITERATIONS.
    ------------------------------------------------

 NO OUTPUT CONTROL FOR STRESS PERIOD    7   TIME STEP   25
 
 SOLVING FOR HEAD 
                                                   Max.-Head-Change                         Max.-Flux-Residual
  Residual-Control   Outer-Iter.   Inner-Iter.     Column Row Layer    Maximum-Head-Change  Column Row Layer    Maximum-Flux-Residual          L2-NORM 
          0                 1           2             5    8     1      -0.3561757813E-01       5    8    1        -0.1908986507E+01      0.4603328843E+01
          0                 2           2             5    8     1       0.3463978487E-02       5    8    1         0.1908627733E+00      0.4577377033E+00
          0                 3           2             5    8     1      -0.2364658084E-03       5    8    1        -0.1339332981E-01      0.3213214738E-01
          0                 4           1             5    8     1       0.8843662933E-05       5    8    1         0.5148860760E-03      0.1240465920E-02

    ------------------------------------------------
       NWT REQUIRED            4 OUTER ITERATIONS 
       AND A TOTAL OF          7 INNER ITERATIONS.
    ------------------------------------------------

 NO OUTPUT CONTROL FOR STRESS PERIOD    7   TIME STEP   26
 
 SOLVING FOR HEAD 
                                                   Max.-Head-Change                         Max.-Flux-Residual
  Residual-Control   Outer-Iter.   Inner-Iter.     Column Row Layer    Maximum-Head-Change  Column Row Layer    Maximum-Flux-Residual          L2-NORM 
          0                 1           2             4    7     1      -0.1805569043E+00       5    8    1        -0.9496410031E+01      0.2320792538E+02
          0                 2           2             4    7     1       0.1756307707E-01       5    8    1         0.9495706085E+00      0.2320222797E+01
          0                 3           2             4    7     1      -0.1195982259E-02       5    8    1        -0.6647063724E-01      0.1624184407E+00
          0                 4           1             4    7     1       0.4758924459E-04       5    8    1         0.2718649764E-02      0.6644133578E-02

    ------------------------------------------------
       NWT REQUIRED            4 OUTER ITERATIONS 
       AND A TOTAL OF          7 INNER ITERATIONS.
    ------------------------------------------------

 NO OUTPUT CONTROL FOR STRESS PERIOD    7   TIME STEP   27
 
 SOLVING FOR HEAD 
                                                   Max.-Head-Change                         Max.-Flux-Residual
  Residual-Control   Outer-Iter.   Inner-Iter.     Column Row Layer    Maximum-Head-Change  Column Row Layer    Maximum-Flux-Residual          L2-NORM 
          0                 1           2             4    7     1      -0.1796384242E+00       4    7    1        -0.9388788469E+01      0.2278161478E+02
          0                 2           2             4    7     1       0.1747370222E-01       4    7    1         0.9388652693E+00      0.2277588146E+01
          0                 3           2             4    7     1      -0.1189896473E-02       4    7    1        -0.6572072574E-01      0.1594340701E+00
          0                 4           1             4    7     1       0.4734708427E-04       4    7    1         0.2687980833E-02      0.6522094839E-02

    ------------------------------------------------
       NWT REQUIRED            4 OUTER ITERATIONS 
       AND A TOTAL OF          7 INNER ITERATIONS.
    ------------------------------------------------

 NO OUTPUT CONTROL FOR STRESS PERIOD    7   TIME STEP   28
 
 SOLVING FOR HEAD 
                                                   Max.-Head-Change                         Max.-Flux-Residual
  Residual-Control   Outer-Iter.   Inner-Iter.     Column Row Layer    Maximum-Head-Change  Column Row Layer    Maximum-Flux-Residual          L2-NORM 
          0                 1           2             4    7     1      -0.1786445502E+00       4    7    1        -0.9341020197E+01      0.2237729988E+02
          0                 2           2             4    7     1       0.1737699697E-01       4    7    1         0.9340864719E+00      0.2237153098E+01
          0                 3           2             4    7     1      -0.1183311482E-02       4    7    1        -0.6538622841E-01      0.1566036628E+00
          0                 4           1             4    7     1       0.4708506007E-04       4    7    1         0.2674299792E-02      0.6406356017E-02

    ------------------------------------------------
       NWT REQUIRED            4 OUTER ITERATIONS 
       AND A TOTAL OF          7 INNER ITERATIONS.
    ------------------------------------------------

 NO OUTPUT CONTROL FOR STRESS PERIOD    7   TIME STEP   29
 
 SOLVING FOR HEAD 
                                                   Max.-Head-Change                         Max.-Flux-Residual
  Residual-Control   Outer-Iter.   Inner-Iter.     Column Row Layer    Maximum-Head-Change  Column Row Layer    Maximum-Flux-Residual          L2-NORM 
          0                 1           2             4    7     1      -0.1775819624E+00       4    7    1        -0.9289324983E+01      0.2199510788E+02
          0                 2           2             4    7     1       0.1727361086E-01       4    7    1         0.9289151926E+00      0.2198966965E+01
          0                 3           2             4    7     1      -0.1176271518E-02       4    7    1        -0.6502425533E-01      0.1539296349E+00
          0                 4           1             4    7     1       0.4680493136E-04       4    7    1         0.2659494970E-02      0.6296924800E-02

    ------------------------------------------------
       NWT REQUIRED            4 OUTER ITERATIONS 
       AND A TOTAL OF          7 INNER ITERATIONS.
    ------------------------------------------------

 NO OUTPUT CONTROL FOR STRESS PERIOD    7   TIME STEP   30



 STREAM LISTING     PERIOD      7   STEP       30

 LAYER ROW COL. STREAM  RCH.  FLOW INTO     FLOW TO   FLOW OUT OF   OVRLND.     DIRECT     STREAM       STREAM     STREAM     STREAM   STREAMBED  STREAMBED
                SEG.NO.  NO.  STRM. RCH.    AQUIFER    STRM. RCH.    RUNOFF     PRECIP       ET          HEAD       DEPTH      WIDTH   CONDCTNC.   GRADIENT

   1    1    1     1     1    7.8032E+01  4.2934E-01   7.7603E+01  0.000E+00  0.000E+00  0.000E+00  1.09476E+03  1.713E+00  2.025E+01  9.111E-02  1.571E+00
   1    2    2     1     2    7.7603E+01  6.6596E-01   7.6937E+01  0.000E+00  0.000E+00  0.000E+00  1.08977E+03  1.710E+00  2.020E+01  1.414E-01  1.570E+00
   1    3    3     1     3    7.6937E+01  5.6898E-01   7.6368E+01  0.000E+00  0.000E+00  0.000E+00  1.08413E+03  1.707E+00  2.014E+01  1.209E-01  1.569E+00
   1    3    4     1     4    7.6368E+01  5.2479E-01   7.5843E+01  0.000E+00  0.000E+00  0.000E+00  1.07911E+03  1.705E+00  2.010E+01  1.115E-01  1.568E+00
   1    4    5     2     1    7.3843E+01  4.1409E-01   7.3429E+01  0.000E+00  0.000E+00  0.000E+00  1.07424E+03  2.309E+00  1.200E+01  7.800E-02  1.770E+00
   1    5    6     2     2    7.3429E+01  3.1812E-01   7.3111E+01  0.000E+00  0.000E+00  0.000E+00  1.06881E+03  2.302E+00  1.200E+01  6.000E-02  1.767E+00
   1    6    6     2     3    7.3111E+01  3.1776E-01   7.2793E+01  0.000E+00  0.000E+00  0.000E+00  1.06409E+03  2.296E+00  1.200E+01  6.000E-02  1.765E+00
   1    7    6     2     4    7.2793E+01  3.1740E-01   7.2476E+01  0.000E+00  0.000E+00  0.000E+00  1.05937E+03  2.290E+00  1.200E+01  6.000E-02  1.763E+00
   1    8    6     2     5    7.2476E+01  3.1704E-01   7.2159E+01  0.000E+00  0.000E+00  0.000E+00  1.05464E+03  2.284E+00  1.200E+01  6.000E-02  1.761E+00
   1    3    5     3     1    2.0000E+00  2.8252E-01   1.7175E+00  0.000E+00  0.000E+00  0.000E+00  1.07555E+03  1.909E+00  9.636E+00  7.227E-02  1.955E+00
   1    3    6     3     2    1.7175E+00  2.4905E-01   1.4684E+00  0.000E+00  0.000E+00  0.000E+00  1.07264E+03  1.727E+00  8.909E+00  6.682E-02  1.864E+00
   1    3    7     3     3    1.4684E+00  1.9718E-01   1.2712E+00  0.000E+00  0.000E+00  0.000E+00  1.06987E+03  1.555E+00  8.218E+00  5.547E-02  1.777E+00
   1    4    8     3     4    1.2712E+00  2.2567E-01   1.0456E+00  0.000E+00  0.000E+00  0.000E+00  1.06682E+03  1.364E+00  7.455E+00  6.709E-02  1.682E+00
   1    5    8     3     5    1.0456E+00  1.5790E-01   8.8768E-01  0.000E+00  0.000E+00  0.000E+00  1.06362E+03  1.164E+00  6.655E+00  4.991E-02  1.582E+00
   1    6    8     3     6    8.8768E-01  5.5980E-02   8.3170E-01  0.000E+00  0.000E+00  0.000E+00  1.06158E+03  1.036E+00  6.145E+00  1.844E-02  1.518E+00
   1    5   10     4     1    1.0000E+01  9.0919E-02   9.9091E+00  0.000E+00  0.000E+00  0.000E+00  1.07836E+03  6.368E-01  1.000E+01  2.500E-02  1.212E+00
   1    5    9     4     2    9.9091E+00  1.8158E-01   9.7275E+00  0.000E+00  0.000E+00  0.000E+00  1.07154E+03  6.315E-01  1.000E+01  5.000E-02  1.211E+00
   1    6    8     4     3    9.7275E+00  1.2689E-01   9.6006E+00  0.000E+00  0.000E+00  0.000E+00  1.06381E+03  6.256E-01  1.000E+01  3.500E-02  1.209E+00
   1    6    8     5     1    1.0432E+01  2.2686E-01   1.0205E+01  0.000E+00  0.000E+00  0.000E+00  1.05868E+03  6.790E-01  1.542E+01  6.166E-02  1.226E+00
   1    7    7     5     2    1.0205E+01  2.7894E-01   9.9265E+00  0.000E+00  0.000E+00  0.000E+00  1.05417E+03  6.732E-01  1.519E+01  7.594E-02  1.224E+00
   1    8    7     5     3    9.9265E+00  1.9221E-01   9.7343E+00  0.000E+00  0.000E+00  0.000E+00  1.04992E+03  6.676E-01  1.497E+01  5.241E-02  1.223E+00
   1    8    6     5     4    9.7343E+00  1.3577E-01   9.5985E+00  0.000E+00  0.000E+00  0.000E+00  1.04691E+03  6.637E-01  1.482E+01  3.706E-02  1.221E+00
   1    9    6     6     1    8.1757E+01  3.2897E-01   8.1428E+01  0.000E+00  0.000E+00  0.000E+00  1.04521E+03  2.483E+00  1.200E+01  6.000E-02  1.828E+00
   1   10    7     6     2    8.1428E+01  3.2861E-01   8.1099E+01  0.000E+00  0.000E+00  0.000E+00  1.04066E+03  2.477E+00  1.200E+01  6.000E-02  1.826E+00
   1   11    7     6     3    8.1099E+01  3.2825E-01   8.0771E+01  0.000E+00  0.000E+00  0.000E+00  1.03611E+03  2.471E+00  1.200E+01  6.000E-02  1.824E+00
   1   12    7     6     4    8.0771E+01  3.2789E-01   8.0443E+01  0.000E+00  0.000E+00  0.000E+00  1.03156E+03  2.465E+00  1.200E+01  6.000E-02  1.822E+00
   1   13    7     6     5    8.0443E+01  2.9127E-02   8.0414E+01  0.000E+00  0.000E+00  0.000E+00  1.02837E+03  2.462E+00  1.200E+01  2.400E-02  4.045E-01
   1   14    9     7     1    1.5000E+02  1.3348E+00   1.4867E+02  0.000E+00  0.000E+00  0.000E+00  1.03987E+03  2.288E+00  5.529E+01  5.593E-01  7.955E-01
   1   13    8     7     2    1.4867E+02  1.8149E+00   1.4685E+02  0.000E+00  0.000E+00  0.000E+00  1.03478E+03  2.279E+00  5.526E+01  6.148E-01  9.840E-01
   1   13    7     7     3    1.4685E+02  1.4146E+00   1.4544E+02  0.000E+00  0.000E+00  0.000E+00  1.02969E+03  2.271E+00  5.522E+01  5.585E-01  8.443E-01
   1   13    6     8     1    2.2585E+02  1.0967E+00   2.2475E+02  0.000E+00  0.000E+00  0.000E+00  1.02516E+03  3.281E+00  4.758E+01  4.848E-01  7.540E-01
   1   13    5     8     2    2.2475E+02  3.0944E-01   2.2444E+02  0.000E+00  0.000E+00  0.000E+00  1.01890E+03  3.277E+00  4.752E+01  4.842E-01  2.130E-01
   1   13    4     8     3    2.2444E+02 -1.9416E+00   2.2639E+02  0.000E+00  0.000E+00  0.000E+00  1.01266E+03  3.282E+00  4.758E+01  4.849E+00 -1.335E-01
   1   13    3     8     4    2.2639E+02 -3.1917E+00   2.2958E+02  0.000E+00  0.000E+00  0.000E+00  1.00642E+03  3.296E+00  4.779E+01  4.870E+00 -2.185E-01
   1   13    2     8     5    2.2958E+02 -2.3035E+00   2.3188E+02  0.000E+00  0.000E+00  0.000E+00  1.00019E+03  3.310E+00  4.800E+01  4.892E+00 -1.570E-01
   1   13    1     8     6    2.3188E+02 -1.5366E+00   2.3342E+02  0.000E+00  0.000E+00  0.000E+00  9.95196E+02  3.321E+00  4.815E+01  2.944E+00 -1.740E-01





UNSATURATED ZONE PACKAGE VOLUMETRIC BUDGET FOR  TIME STEP    30 STRESS PERIOD    7
  ------------------------------------------------------------------------------



     CUMULATIVE VOLUMES      L**3       RATES FOR THIS TIME STEP      L**3/T
     ------------------                 ------------------------

           IN:                                      IN:
           ---                                      ---
        INFILTRATION =    97919072.3752          INFILTRATION =          60.8475

          OUT:                                     OUT:
          ----                                     ----
              UZF ET =    26307282.8817                UZF ET =           4.6352
        UZF RECHARGE =     6792663.4609          UZF RECHARGE =           0.2412

            IN - OUT =    64819126.0327              IN - OUT =          55.9710

          STORAGE:                                 STORAGE:
          --------                                 --------
      STORAGE CHANGE =    64833382.3338        STORAGE CHANGE =          55.9710

 PERCENT DISCREPANCY IS DIFFERENCE BETWEEN IN-OUT MINUS CHANGE IN STORAGE
 DIVIDED BY THE AVERAGE OF IN AND OUT TIMES 100

 PERCENT DISCREPANCY =          -0.00     PERCENT DISCREPANCY =           0.00






1
  VOLUMETRIC BUDGET FOR ENTIRE MODEL AT END OF TIME STEP   30, STRESS PERIOD   7
  ------------------------------------------------------------------------------

     CUMULATIVE VOLUMES      L**3       RATES FOR THIS TIME STEP      L**3/T
     ------------------                 ------------------------

           IN:                                      IN:
           ---                                      ---
               AWU WELLS =    84482472.0000                 AWU WELLS =          60.0000
      DIVERSION SEGMENTS =           0.0000        DIVERSION SEGMENTS =           0.0000
           GW IRRIGATION =           0.0000             GW IRRIGATION =           0.0000
           SW IRRIGATION =           0.0000             SW IRRIGATION =           0.0000
        SYSTEM LOSSES GW =           0.0000          SYSTEM LOSSES GW =           0.0000
        SYSTEM LOSSES SW =           0.0000          SYSTEM LOSSES SW =           0.0000

                TOTAL IN =    84482472.0000                  TOTAL IN =          60.0000

          OUT:                                     OUT:
          ----                                     ----
               AWU WELLS =           0.0000                 AWU WELLS =           0.0000
      DIVERSION SEGMENTS =           0.0000        DIVERSION SEGMENTS =           0.0000
           GW IRRIGATION =    84482472.0000             GW IRRIGATION =          60.0000
           SW IRRIGATION =           0.0000             SW IRRIGATION =           0.0000
        SYSTEM LOSSES GW =           0.0000          SYSTEM LOSSES GW =           0.0000
        SYSTEM LOSSES SW =           0.0000          SYSTEM LOSSES SW =           0.0000

               TOTAL OUT =    84482472.0000                 TOTAL OUT =          60.0000

                IN - OUT =           0.0000                  IN - OUT =           0.0000

     PERCENT DISCREPANCY =           0.00         PERCENT DISCREPANCY =           0.00



1
  VOLUMETRIC BUDGET FOR ENTIRE MODEL AT END OF TIME STEP   30, STRESS PERIOD   7
  ------------------------------------------------------------------------------

     CUMULATIVE VOLUMES      L**3       RATES FOR THIS TIME STEP      L**3/T
     ------------------                 ------------------------

           IN:                                      IN:
           ---                                      ---
             STORAGE     =   119129632.0000               STORAGE     =          59.7794
       CONSTANT HEAD     =           0.0000         CONSTANT HEAD     =           0.0000
     HEAD DEP BOUNDS     =     4530342.0000       HEAD DEP BOUNDS     =           0.2857
      STREAM LEAKAGE     =   203868192.0000        STREAM LEAKAGE     =          13.5881
        UZF RECHARGE     =     6792662.0000          UZF RECHARGE     =           0.2412
               GW ET     =           0.0000                 GW ET     =           0.0000
     SURFACE LEAKAGE     =           0.0000       SURFACE LEAKAGE     =           0.0000
           AWU WELLS     =           0.0000             AWU WELLS     =           0.0000

                TOTAL IN =   334320832.0000                  TOTAL IN =          73.8944

          OUT:                                     OUT:
          ----                                     ----
             STORAGE     =    76385608.0000               STORAGE     =           1.4397
       CONSTANT HEAD     =           0.0000         CONSTANT HEAD     =           0.0000
     HEAD DEP BOUNDS     =     4647348.0000       HEAD DEP BOUNDS     =           0.2933
      STREAM LEAKAGE     =   156070000.0000        STREAM LEAKAGE     =           8.9734
        UZF RECHARGE     =           0.0000          UZF RECHARGE     =           0.0000
               GW ET     =    12742209.0000                 GW ET     =           3.1883
     SURFACE LEAKAGE     =           0.0000       SURFACE LEAKAGE     =           0.0000
           AWU WELLS     =    84482472.0000             AWU WELLS     =          60.0000

               TOTAL OUT =   334327648.0000                 TOTAL OUT =          73.8946

                IN - OUT =       -6816.0000                  IN - OUT =      -1.8311E-04

     PERCENT DISCREPANCY =          -0.00         PERCENT DISCREPANCY =          -0.00






         TIME SUMMARY AT END OF TIME STEP   30 IN STRESS PERIOD    7
                    SECONDS     MINUTES      HOURS       DAYS        YEARS
                    -----------------------------------------------------------
   TIME STEP LENGTH  87600.      1460.0      24.333      1.0139     2.77588E-03
 STRESS PERIOD TIME 2.62800E+06  43800.      730.00      30.417     8.32763E-02
         TOTAL TIME 1.58544E+07 2.64240E+05  4404.0      183.50     0.50240    
1
1
                            STRESS PERIOD NO.    8, LENGTH =   2628000.    
                            -----------------------------------------------

                              NUMBER OF TIME STEPS =    30

                               MULTIPLIER FOR DELT =     1.000

                            INITIAL TIME STEP SIZE =   87600.00    

 REUSING NON-PARAMETER GHB CELLS FROM LAST STRESS PERIOD

      2 GHB CELLS

 REUSING STREAM SEGMENT DATA FROM LAST STRESS PERIOD



            AREAL INFILTRATION RATE
 READING ON UNIT   19 WITH FORMAT: (10F4.0)            

            1           2           3           4           5           6           7           8           9          10
 ........................................................................................................................
   1   1.0000E-10  2.0000E-10   0.000       0.000       0.000       0.000       0.000       0.000       0.000       0.000    
   2   2.0000E-10  1.0000E-10  2.0000E-10   0.000       0.000      8.0000E-10  8.0000E-10  5.0000E-10   0.000       0.000    
   3    0.000      5.0000E-10  1.0000E-10  1.0000E-10  8.0000E-10  8.0000E-10  5.0000E-10  5.0000E-10   0.000       0.000    
   4   8.0000E-10  5.0000E-10  1.0000E-10  1.0000E-10  1.0000E-10  1.0000E-10  1.0000E-10  1.0000E-10  2.0000E-10   0.000    
   5   8.0000E-10  5.0000E-10  1.0000E-10  1.0000E-10  1.0000E-10  1.0000E-10  1.0000E-10  1.0000E-10  1.0000E-10  1.0000E-10
   6   8.0000E-10  5.0000E-10  5.0000E-10  2.0000E-10  2.0000E-10  1.0000E-10  1.0000E-10  1.0000E-10  1.0000E-10  5.0000E-10
   7   8.0000E-10  5.0000E-10  5.0000E-10  2.0000E-10  2.0000E-10  1.0000E-10  1.0000E-10  2.0000E-10  2.0000E-10   0.000    
   8    0.000      5.0000E-10  5.0000E-10  2.0000E-10  2.0000E-10  1.0000E-10  1.0000E-10  2.0000E-10  5.0000E-10   0.000    
   9    0.000      5.0000E-10  5.0000E-10  2.0000E-10  2.0000E-10  1.0000E-10  1.0000E-10  2.0000E-10  5.0000E-10   0.000    
  10    0.000      5.0000E-10  5.0000E-10  2.0000E-10  2.0000E-10  1.0000E-10  1.0000E-10  2.0000E-10  5.0000E-10  8.0000E-10
  11    0.000      1.0000E-10  1.0000E-10  1.0000E-10  1.0000E-10  1.0000E-10  1.0000E-10  2.0000E-10  5.0000E-10   0.000    
  12   1.0000E-10  1.0000E-10  1.0000E-10  1.0000E-10  1.0000E-10  1.0000E-10  1.0000E-10  1.0000E-10  2.0000E-10   0.000    
  13   1.0000E-10  1.0000E-10  2.0000E-10  2.0000E-10  2.0000E-10  2.0000E-10  2.0000E-10  1.0000E-10  1.0000E-10   0.000    
  14    0.000      2.0000E-10  5.0000E-10  5.0000E-10  5.0000E-10  5.0000E-10  5.0000E-10  2.0000E-10  1.0000E-10   0.000    
  15    0.000       0.000      8.0000E-10  8.0000E-10  8.0000E-10  8.0000E-10   0.000       0.000       0.000       0.000    

                  ET RATE =  8.000000E-08

 USING ET EXTINCTION DEPTH FROM PREVIOUS STRESS PERIOD. CURRENT PERIOD IS:       8

 USING EXTINCTION WATER CONTENT FROM PREVIOUS STRESS PERIOD. CURRENT PERIOD IS:       8

 PROCESSING AWU STRESS PERIOD DATA

 READING AWU STRESS PERIOD DATA

 READING IRRIGATION WELL

 END PROCESSING AWU STRESS PERIOD DATA OPTIONS
 
 SOLVING FOR HEAD 
                                                   Max.-Head-Change                         Max.-Flux-Residual
  Residual-Control   Outer-Iter.   Inner-Iter.     Column Row Layer    Maximum-Head-Change  Column Row Layer    Maximum-Flux-Residual          L2-NORM 
          0                 1           2             4    7     1      -0.1764574908E+00       4    7    1        -0.9234079044E+01      0.2179097423E+02
          0                 2           2             4    7     1       0.1716420804E-01       4    7    1         0.9233890372E+00      0.2177824005E+01
          0                 3           2             4    7     1      -0.1168821811E-02       4    7    1        -0.6463743907E-01      0.1523808653E+00
          0                 4           1             4    7     1       0.4650849990E-04       4    7    1         0.2643674102E-02      0.6229406388E-02

    ------------------------------------------------
       NWT REQUIRED            4 OUTER ITERATIONS 
       AND A TOTAL OF          7 INNER ITERATIONS.
    ------------------------------------------------

 OUTPUT CONTROL FOR STRESS PERIOD    8   TIME STEP    1
    PRINT BUDGET
    SAVE BUDGET
 UBDSV1 SAVING "         STORAGE" ON UNIT 102 AT TIME STEP  1, STRESS PERIOD   8
 UBDSV2 SAVING "   CONSTANT HEAD" ON UNIT 102 AT TIME STEP  1, STRESS PERIOD   8
 UBDSV1 SAVING "FLOW RIGHT FACE " ON UNIT 102 AT TIME STEP  1, STRESS PERIOD   8
 UBDSV1 SAVING "FLOW FRONT FACE " ON UNIT 102 AT TIME STEP  1, STRESS PERIOD   8

  HEAD DEP BOUNDS   PERIOD    8   STEP     1
 BOUNDARY      1   LAYER   1   ROW    13   COL     1   RATE   -0.292492    
 BOUNDARY      2   LAYER   1   ROW    14   COL     9   RATE    0.285685    



 STREAM LISTING     PERIOD      8   STEP        1

 LAYER ROW COL. STREAM  RCH.  FLOW INTO     FLOW TO   FLOW OUT OF   OVRLND.     DIRECT     STREAM       STREAM     STREAM     STREAM   STREAMBED  STREAMBED
                SEG.NO.  NO.  STRM. RCH.    AQUIFER    STRM. RCH.    RUNOFF     PRECIP       ET          HEAD       DEPTH      WIDTH   CONDCTNC.   GRADIENT

   1    1    1     1     1    7.5000E+01  4.2232E-01   7.4578E+01  0.000E+00  0.000E+00  0.000E+00  1.09475E+03  1.698E+00  1.998E+01  8.990E-02  1.566E+00
   1    2    2     1     2    7.4578E+01  6.5422E-01   7.3923E+01  0.000E+00  0.000E+00  0.000E+00  1.08975E+03  1.692E+00  1.992E+01  1.394E-01  1.564E+00
   1    3    3     1     3    7.3923E+01  5.5813E-01   7.3365E+01  0.000E+00  0.000E+00  0.000E+00  1.08410E+03  1.685E+00  1.985E+01  1.191E-01  1.562E+00
   1    3    4     1     4    7.3365E+01  5.1411E-01   7.2851E+01  0.000E+00  0.000E+00  0.000E+00  1.07909E+03  1.679E+00  1.980E+01  1.099E-01  1.560E+00
   1    4    5     2     1    7.0851E+01  4.0967E-01   7.0442E+01  0.000E+00  0.000E+00  0.000E+00  1.07419E+03  2.252E+00  1.200E+01  7.800E-02  1.751E+00
   1    5    6     2     2    7.0442E+01  3.1471E-01   7.0127E+01  0.000E+00  0.000E+00  0.000E+00  1.06875E+03  2.245E+00  1.200E+01  6.000E-02  1.748E+00
   1    6    6     2     3    7.0127E+01  3.1435E-01   6.9812E+01  0.000E+00  0.000E+00  0.000E+00  1.06403E+03  2.239E+00  1.200E+01  6.000E-02  1.746E+00
   1    7    6     2     4    6.9812E+01  3.1399E-01   6.9498E+01  0.000E+00  0.000E+00  0.000E+00  1.05931E+03  2.233E+00  1.200E+01  6.000E-02  1.744E+00
   1    8    6     2     5    6.9498E+01  3.1363E-01   6.9185E+01  0.000E+00  0.000E+00  0.000E+00  1.05459E+03  2.227E+00  1.200E+01  6.000E-02  1.742E+00
   1    3    5     3     1    2.0000E+00  2.8252E-01   1.7175E+00  0.000E+00  0.000E+00  0.000E+00  1.07555E+03  1.909E+00  9.636E+00  7.227E-02  1.955E+00
   1    3    6     3     2    1.7175E+00  2.4905E-01   1.4684E+00  0.000E+00  0.000E+00  0.000E+00  1.07264E+03  1.727E+00  8.909E+00  6.682E-02  1.864E+00
   1    3    7     3     3    1.4684E+00  1.9718E-01   1.2712E+00  0.000E+00  0.000E+00  0.000E+00  1.06987E+03  1.555E+00  8.218E+00  5.547E-02  1.777E+00
   1    4    8     3     4    1.2712E+00  2.2567E-01   1.0456E+00  0.000E+00  0.000E+00  0.000E+00  1.06682E+03  1.364E+00  7.455E+00  6.709E-02  1.682E+00
   1    5    8     3     5    1.0456E+00  1.5790E-01   8.8768E-01  0.000E+00  0.000E+00  0.000E+00  1.06362E+03  1.164E+00  6.655E+00  4.991E-02  1.582E+00
   1    6    8     3     6    8.8768E-01  5.5980E-02   8.3170E-01  0.000E+00  0.000E+00  0.000E+00  1.06158E+03  1.036E+00  6.145E+00  1.844E-02  1.518E+00
   1    5   10     4     1    1.0000E+01  9.0919E-02   9.9091E+00  0.000E+00  0.000E+00  0.000E+00  1.07836E+03  6.368E-01  1.000E+01  2.500E-02  1.212E+00
   1    5    9     4     2    9.9091E+00  1.8158E-01   9.7275E+00  0.000E+00  0.000E+00  0.000E+00  1.07154E+03  6.315E-01  1.000E+01  5.000E-02  1.211E+00
   1    6    8     4     3    9.7275E+00  1.2689E-01   9.6006E+00  0.000E+00  0.000E+00  0.000E+00  1.06381E+03  6.256E-01  1.000E+01  3.500E-02  1.209E+00
   1    6    8     5     1    1.0432E+01  2.2686E-01   1.0205E+01  0.000E+00  0.000E+00  0.000E+00  1.05868E+03  6.790E-01  1.542E+01  6.166E-02  1.226E+00
   1    7    7     5     2    1.0205E+01  2.7894E-01   9.9265E+00  0.000E+00  0.000E+00  0.000E+00  1.05417E+03  6.732E-01  1.519E+01  7.594E-02  1.224E+00
   1    8    7     5     3    9.9265E+00  1.9221E-01   9.7343E+00  0.000E+00  0.000E+00  0.000E+00  1.04992E+03  6.676E-01  1.497E+01  5.241E-02  1.223E+00
   1    8    6     5     4    9.7343E+00  1.3577E-01   9.5985E+00  0.000E+00  0.000E+00  0.000E+00  1.04691E+03  6.637E-01  1.482E+01  3.706E-02  1.221E+00
   1    9    6     6     1    7.8783E+01  3.2569E-01   7.8458E+01  0.000E+00  0.000E+00  0.000E+00  1.04516E+03  2.428E+00  1.200E+01  6.000E-02  1.809E+00
   1   10    7     6     2    7.8458E+01  3.2533E-01   7.8132E+01  0.000E+00  0.000E+00  0.000E+00  1.04060E+03  2.422E+00  1.200E+01  6.000E-02  1.807E+00
   1   11    7     6     3    7.8132E+01  3.2497E-01   7.7807E+01  0.000E+00  0.000E+00  0.000E+00  1.03605E+03  2.416E+00  1.200E+01  6.000E-02  1.805E+00
   1   12    7     6     4    7.7807E+01  3.2461E-01   7.7483E+01  0.000E+00  0.000E+00  0.000E+00  1.03150E+03  2.410E+00  1.200E+01  6.000E-02  1.803E+00
   1   13    7     6     5    7.7483E+01  2.7888E-02   7.7455E+01  0.000E+00  0.000E+00  0.000E+00  1.02832E+03  2.407E+00  1.200E+01  2.400E-02  3.873E-01
   1   14    9     7     1    1.5000E+02  1.3347E+00   1.4867E+02  0.000E+00  0.000E+00  0.000E+00  1.03987E+03  2.288E+00  5.529E+01  5.593E-01  7.955E-01
   1   13    8     7     2    1.4867E+02  1.8148E+00   1.4685E+02  0.000E+00  0.000E+00  0.000E+00  1.03478E+03  2.279E+00  5.526E+01  6.148E-01  9.840E-01
   1   13    7     7     3    1.4685E+02  1.4164E+00   1.4543E+02  0.000E+00  0.000E+00  0.000E+00  1.02969E+03  2.271E+00  5.522E+01  5.585E-01  8.454E-01
   1   13    6     8     1    2.2289E+02  1.0871E+00   2.2180E+02  0.000E+00  0.000E+00  0.000E+00  1.02514E+03  3.265E+00  4.734E+01  4.824E-01  7.512E-01
   1   13    5     8     2    2.2180E+02  3.0893E-01   2.2149E+02  0.000E+00  0.000E+00  0.000E+00  1.01889E+03  3.261E+00  4.728E+01  4.818E-01  2.137E-01
   1   13    4     8     3    2.2149E+02 -1.9074E+00   2.2340E+02  0.000E+00  0.000E+00  0.000E+00  1.01264E+03  3.265E+00  4.735E+01  4.825E+00 -1.318E-01
   1   13    3     8     4    2.2340E+02 -3.1529E+00   2.2655E+02  0.000E+00  0.000E+00  0.000E+00  1.00640E+03  3.279E+00  4.755E+01  4.845E+00 -2.169E-01
   1   13    2     8     5    2.2655E+02 -2.3128E+00   2.2887E+02  0.000E+00  0.000E+00  0.000E+00  1.00017E+03  3.294E+00  4.777E+01  4.867E+00 -1.584E-01
   1   13    1     8     6    2.2887E+02 -1.5165E+00   2.3038E+02  0.000E+00  0.000E+00  0.000E+00  9.95180E+02  3.305E+00  4.792E+01  2.930E+00 -1.725E-01



 UBDSV3 SAVING "           GW ET" ON UNIT  61 AT TIME STEP  1, STRESS PERIOD   8
 UBDSV3 SAVING "    UZF RECHARGE" ON UNIT  61 AT TIME STEP  1, STRESS PERIOD   8
 UBDSV3 SAVING " SURFACE LEAKAGE" ON UNIT  61 AT TIME STEP  1, STRESS PERIOD   8
 UBDSV3 SAVING "       HORT+DUNN" ON UNIT  61 AT TIME STEP  1, STRESS PERIOD   8
 UBDSV3 SAVING "  STORAGE CHANGE" ON UNIT  61 AT TIME STEP  1, STRESS PERIOD   8


UNSATURATED ZONE PACKAGE VOLUMETRIC BUDGET FOR  TIME STEP     1 STRESS PERIOD    8
  ------------------------------------------------------------------------------



     CUMULATIVE VOLUMES      L**3       RATES FOR THIS TIME STEP      L**3/T
     ------------------                 ------------------------

           IN:                                      IN:
           ---                                      ---
        INFILTRATION =   103249313.3752          INFILTRATION =          60.8475

          OUT:                                     OUT:
          ----                                     ----
              UZF ET =    27478112.2462                UZF ET =          13.3656
        UZF RECHARGE =     6812848.4336          UZF RECHARGE =           0.2304

            IN - OUT =    68958352.6954              IN - OUT =          47.2514

          STORAGE:                                 STORAGE:
          --------                                 --------
      STORAGE CHANGE =    68972609.0798        STORAGE CHANGE =          47.2514

 PERCENT DISCREPANCY IS DIFFERENCE BETWEEN IN-OUT MINUS CHANGE IN STORAGE
 DIVIDED BY THE AVERAGE OF IN AND OUT TIMES 100

 PERCENT DISCREPANCY =          -0.00     PERCENT DISCREPANCY =           0.00






 

            AWU WELLS     PERIOD    8   STEP   1
 AWU WELL      1   LAYER   1   ROW     6   COL     4   RATE    -10.0000    
 AWU WELL      2   LAYER   1   ROW     6   COL     5   RATE    -10.0000    
 AWU WELL      3   LAYER   1   ROW     7   COL     4   RATE    -10.0000    
 AWU WELL      4   LAYER   1   ROW     7   COL     5   RATE    -10.0000    
 AWU WELL      5   LAYER   1   ROW     8   COL     4   RATE    -10.0000    
 AWU WELL      6   LAYER   1   ROW     8   COL     5   RATE    -10.0000    
 
 

        GW IRRIGATION     PERIOD    8   STEP   1
 AWU WELL      1   ROW     6   COL     4   RATE     10.0000    
 AWU WELL      2   ROW     6   COL     5   RATE     10.0000    
 AWU WELL      3   ROW     7   COL     4   RATE     10.0000    
 AWU WELL      4   ROW     7   COL     5   RATE     10.0000    
 AWU WELL      5   ROW     8   COL     4   RATE     10.0000    
 AWU WELL      6   ROW     8   COL     5   RATE     10.0000    
 
1
  VOLUMETRIC BUDGET FOR ENTIRE MODEL AT END OF TIME STEP    1, STRESS PERIOD   8
  ------------------------------------------------------------------------------

     CUMULATIVE VOLUMES      L**3       RATES FOR THIS TIME STEP      L**3/T
     ------------------                 ------------------------

           IN:                                      IN:
           ---                                      ---
               AWU WELLS =    89738472.0000                 AWU WELLS =          60.0000
      DIVERSION SEGMENTS =           0.0000        DIVERSION SEGMENTS =           0.0000
           GW IRRIGATION =           0.0000             GW IRRIGATION =           0.0000
           SW IRRIGATION =           0.0000             SW IRRIGATION =           0.0000
        SYSTEM LOSSES GW =           0.0000          SYSTEM LOSSES GW =           0.0000
        SYSTEM LOSSES SW =           0.0000          SYSTEM LOSSES SW =           0.0000

                TOTAL IN =    89738472.0000                  TOTAL IN =          60.0000

          OUT:                                     OUT:
          ----                                     ----
               AWU WELLS =           0.0000                 AWU WELLS =           0.0000
      DIVERSION SEGMENTS =           0.0000        DIVERSION SEGMENTS =           0.0000
           GW IRRIGATION =    89738472.0000             GW IRRIGATION =          60.0000
           SW IRRIGATION =           0.0000             SW IRRIGATION =           0.0000
        SYSTEM LOSSES GW =           0.0000          SYSTEM LOSSES GW =           0.0000
        SYSTEM LOSSES SW =           0.0000          SYSTEM LOSSES SW =           0.0000

               TOTAL OUT =    89738472.0000                 TOTAL OUT =          60.0000

                IN - OUT =           0.0000                  IN - OUT =           0.0000

     PERCENT DISCREPANCY =           0.00         PERCENT DISCREPANCY =           0.00



1
  VOLUMETRIC BUDGET FOR ENTIRE MODEL AT END OF TIME STEP    1, STRESS PERIOD   8
  ------------------------------------------------------------------------------

     CUMULATIVE VOLUMES      L**3       RATES FOR THIS TIME STEP      L**3/T
     ------------------                 ------------------------

           IN:                                      IN:
           ---                                      ---
             STORAGE     =   124822688.0000               STORAGE     =          64.9893
       CONSTANT HEAD     =           0.0000         CONSTANT HEAD     =           0.0000
     HEAD DEP BOUNDS     =     4555368.0000       HEAD DEP BOUNDS     =           0.2857
      STREAM LEAKAGE     =   205051408.0000        STREAM LEAKAGE     =          13.5071
        UZF RECHARGE     =     6812847.0000          UZF RECHARGE     =           0.2304
               GW ET     =           0.0000                 GW ET     =           0.0000
     SURFACE LEAKAGE     =           0.0000       SURFACE LEAKAGE     =           0.0000
           AWU WELLS     =           0.0000             AWU WELLS     =           0.0000

                TOTAL IN =   341242304.0000                  TOTAL IN =          79.0125

          OUT:                                     OUT:
          ----                                     ----
             STORAGE     =    76505352.0000               STORAGE     =           1.3670
       CONSTANT HEAD     =           0.0000         CONSTANT HEAD     =           0.0000
     HEAD DEP BOUNDS     =     4672970.5000       HEAD DEP BOUNDS     =           0.2925
      STREAM LEAKAGE     =   156848736.0000        STREAM LEAKAGE     =           8.8896
        UZF RECHARGE     =           0.0000          UZF RECHARGE     =           0.0000
               GW ET     =    13483619.0000                 GW ET     =           8.4636
     SURFACE LEAKAGE     =           0.0000       SURFACE LEAKAGE     =           0.0000
           AWU WELLS     =    89738472.0000             AWU WELLS     =          60.0000

               TOTAL OUT =   341249152.0000                 TOTAL OUT =          79.0126

                IN - OUT =       -6848.0000                  IN - OUT =      -1.9836E-04

     PERCENT DISCREPANCY =          -0.00         PERCENT DISCREPANCY =          -0.00






         TIME SUMMARY AT END OF TIME STEP    1 IN STRESS PERIOD    8
                    SECONDS     MINUTES      HOURS       DAYS        YEARS
                    -----------------------------------------------------------
   TIME STEP LENGTH  87600.      1460.0      24.333      1.0139     2.77588E-03
 STRESS PERIOD TIME  87600.      1460.0      24.333      1.0139     2.77588E-03
         TOTAL TIME 1.59420E+07 2.65700E+05  4428.3      184.51     0.50517    
1
 
 SOLVING FOR HEAD 
                                                   Max.-Head-Change                         Max.-Flux-Residual
  Residual-Control   Outer-Iter.   Inner-Iter.     Column Row Layer    Maximum-Head-Change  Column Row Layer    Maximum-Flux-Residual          L2-NORM 
          0                 1           2             5    8     1       0.3170631500E-01       5    8    1         0.1731834619E+01      0.4568681487E+01
          0                 2           2             5    8     1      -0.3084202239E-02       5    8    1        -0.1731864256E+00      0.4516312097E+00
          0                 3           2             5    8     1       0.2100223241E-03       5    8    1         0.1212302698E-01      0.3133828351E-01
          0                 4           1             5    8     1      -0.8356986906E-05       5    8    1        -0.4958326285E-03      0.1270756449E-02

    ------------------------------------------------
       NWT REQUIRED            4 OUTER ITERATIONS 
       AND A TOTAL OF          7 INNER ITERATIONS.
    ------------------------------------------------

 NO OUTPUT CONTROL FOR STRESS PERIOD    8   TIME STEP    2
 
 SOLVING FOR HEAD 
                                                   Max.-Head-Change                         Max.-Flux-Residual
  Residual-Control   Outer-Iter.   Inner-Iter.     Column Row Layer    Maximum-Head-Change  Column Row Layer    Maximum-Flux-Residual          L2-NORM 
          0                 1           2             5    8     1       0.3021812189E-01       5    8    1         0.1648929544E+01      0.4354502146E+01
          0                 2           2             5    8     1      -0.2939437050E-02       5    8    1        -0.1648955965E+00      0.4304581284E+00
          0                 3           2             5    8     1       0.2001643964E-03       5    8    1         0.1154267175E-01      0.2988671673E-01
          0                 4           1             5    8     1      -0.7964730248E-05       5    8    1        -0.4720960458E-03      0.1212871242E-02

    ------------------------------------------------
       NWT REQUIRED            4 OUTER ITERATIONS 
       AND A TOTAL OF          7 INNER ITERATIONS.
    ------------------------------------------------

 NO OUTPUT CONTROL FOR STRESS PERIOD    8   TIME STEP    3
 
 SOLVING FOR HEAD 
                                                   Max.-Head-Change                         Max.-Flux-Residual
  Residual-Control   Outer-Iter.   Inner-Iter.     Column Row Layer    Maximum-Head-Change  Column Row Layer    Maximum-Flux-Residual          L2-NORM 
          0                 1           2             4    7     1      -0.2067820395E-01       4    7    1        -0.1094189452E+01      0.3200811997E+01
          0                 2           2             4    7     1       0.2011639395E-02       4    7    1         0.1094302631E+00      0.3138695977E+00
          0                 3           2             4    7     1      -0.1367651005E-03       4    7    1        -0.7647970330E-02      0.2167061581E-01
          0                 4           1             4    7     1       0.5656244104E-05       4    7    1         0.3249617264E-03      0.8929164825E-03

    ------------------------------------------------
       NWT REQUIRED            4 OUTER ITERATIONS 
       AND A TOTAL OF          7 INNER ITERATIONS.
    ------------------------------------------------

 NO OUTPUT CONTROL FOR STRESS PERIOD    8   TIME STEP    4
 
 SOLVING FOR HEAD 
                                                   Max.-Head-Change                         Max.-Flux-Residual
  Residual-Control   Outer-Iter.   Inner-Iter.     Column Row Layer    Maximum-Head-Change  Column Row Layer    Maximum-Flux-Residual          L2-NORM 
          0                 1           2             4    7     1      -0.1745268639E+00       4    7    1        -0.9132403924E+01      0.2153493871E+02
          0                 2           2             4    7     1       0.1697641792E-01       4    7    1         0.9132219883E+00      0.2152586719E+01
          0                 3           2             4    7     1      -0.1156033929E-02       4    7    1        -0.6392574096E-01      0.1506469913E+00
          0                 4           1             4    7     1       0.4599965847E-04       4    7    1         0.2614565627E-02      0.6160515082E-02

    ------------------------------------------------
       NWT REQUIRED            4 OUTER ITERATIONS 
       AND A TOTAL OF          7 INNER ITERATIONS.
    ------------------------------------------------

 OUTPUT CONTROL FOR STRESS PERIOD    8   TIME STEP    5
    PRINT BUDGET
    SAVE BUDGET
 UBDSV1 SAVING "         STORAGE" ON UNIT 102 AT TIME STEP  5, STRESS PERIOD   8
 UBDSV2 SAVING "   CONSTANT HEAD" ON UNIT 102 AT TIME STEP  5, STRESS PERIOD   8
 UBDSV1 SAVING "FLOW RIGHT FACE " ON UNIT 102 AT TIME STEP  5, STRESS PERIOD   8
 UBDSV1 SAVING "FLOW FRONT FACE " ON UNIT 102 AT TIME STEP  5, STRESS PERIOD   8

  HEAD DEP BOUNDS   PERIOD    8   STEP     5
 BOUNDARY      1   LAYER   1   ROW    13   COL     1   RATE   -0.289781    
 BOUNDARY      2   LAYER   1   ROW    14   COL     9   RATE    0.285680    



 STREAM LISTING     PERIOD      8   STEP        5

 LAYER ROW COL. STREAM  RCH.  FLOW INTO     FLOW TO   FLOW OUT OF   OVRLND.     DIRECT     STREAM       STREAM     STREAM     STREAM   STREAMBED  STREAMBED
                SEG.NO.  NO.  STRM. RCH.    AQUIFER    STRM. RCH.    RUNOFF     PRECIP       ET          HEAD       DEPTH      WIDTH   CONDCTNC.   GRADIENT

   1    1    1     1     1    7.5000E+01  4.2232E-01   7.4578E+01  0.000E+00  0.000E+00  0.000E+00  1.09475E+03  1.698E+00  1.998E+01  8.990E-02  1.566E+00
   1    2    2     1     2    7.4578E+01  6.5422E-01   7.3923E+01  0.000E+00  0.000E+00  0.000E+00  1.08975E+03  1.692E+00  1.992E+01  1.394E-01  1.564E+00
   1    3    3     1     3    7.3923E+01  5.5813E-01   7.3365E+01  0.000E+00  0.000E+00  0.000E+00  1.08410E+03  1.685E+00  1.985E+01  1.191E-01  1.562E+00
   1    3    4     1     4    7.3365E+01  5.1411E-01   7.2851E+01  0.000E+00  0.000E+00  0.000E+00  1.07909E+03  1.679E+00  1.980E+01  1.099E-01  1.560E+00
   1    4    5     2     1    7.0851E+01  4.0967E-01   7.0442E+01  0.000E+00  0.000E+00  0.000E+00  1.07419E+03  2.252E+00  1.200E+01  7.800E-02  1.751E+00
   1    5    6     2     2    7.0442E+01  3.1471E-01   7.0127E+01  0.000E+00  0.000E+00  0.000E+00  1.06875E+03  2.245E+00  1.200E+01  6.000E-02  1.748E+00
   1    6    6     2     3    7.0127E+01  3.1435E-01   6.9812E+01  0.000E+00  0.000E+00  0.000E+00  1.06403E+03  2.239E+00  1.200E+01  6.000E-02  1.746E+00
   1    7    6     2     4    6.9812E+01  3.1399E-01   6.9498E+01  0.000E+00  0.000E+00  0.000E+00  1.05931E+03  2.233E+00  1.200E+01  6.000E-02  1.744E+00
   1    8    6     2     5    6.9498E+01  3.1363E-01   6.9185E+01  0.000E+00  0.000E+00  0.000E+00  1.05459E+03  2.227E+00  1.200E+01  6.000E-02  1.742E+00
   1    3    5     3     1    2.0000E+00  2.8252E-01   1.7175E+00  0.000E+00  0.000E+00  0.000E+00  1.07555E+03  1.909E+00  9.636E+00  7.227E-02  1.955E+00
   1    3    6     3     2    1.7175E+00  2.4905E-01   1.4684E+00  0.000E+00  0.000E+00  0.000E+00  1.07264E+03  1.727E+00  8.909E+00  6.682E-02  1.864E+00
   1    3    7     3     3    1.4684E+00  1.9718E-01   1.2712E+00  0.000E+00  0.000E+00  0.000E+00  1.06987E+03  1.555E+00  8.218E+00  5.547E-02  1.777E+00
   1    4    8     3     4    1.2712E+00  2.2567E-01   1.0456E+00  0.000E+00  0.000E+00  0.000E+00  1.06682E+03  1.364E+00  7.455E+00  6.709E-02  1.682E+00
   1    5    8     3     5    1.0456E+00  1.5790E-01   8.8768E-01  0.000E+00  0.000E+00  0.000E+00  1.06362E+03  1.164E+00  6.655E+00  4.991E-02  1.582E+00
   1    6    8     3     6    8.8768E-01  5.5980E-02   8.3170E-01  0.000E+00  0.000E+00  0.000E+00  1.06158E+03  1.036E+00  6.145E+00  1.844E-02  1.518E+00
   1    5   10     4     1    1.0000E+01  9.0919E-02   9.9091E+00  0.000E+00  0.000E+00  0.000E+00  1.07836E+03  6.368E-01  1.000E+01  2.500E-02  1.212E+00
   1    5    9     4     2    9.9091E+00  1.8158E-01   9.7275E+00  0.000E+00  0.000E+00  0.000E+00  1.07154E+03  6.315E-01  1.000E+01  5.000E-02  1.211E+00
   1    6    8     4     3    9.7275E+00  1.2689E-01   9.6006E+00  0.000E+00  0.000E+00  0.000E+00  1.06381E+03  6.256E-01  1.000E+01  3.500E-02  1.209E+00
   1    6    8     5     1    1.0432E+01  2.2686E-01   1.0205E+01  0.000E+00  0.000E+00  0.000E+00  1.05868E+03  6.790E-01  1.542E+01  6.166E-02  1.226E+00
   1    7    7     5     2    1.0205E+01  2.7894E-01   9.9265E+00  0.000E+00  0.000E+00  0.000E+00  1.05417E+03  6.732E-01  1.519E+01  7.594E-02  1.224E+00
   1    8    7     5     3    9.9265E+00  1.9221E-01   9.7343E+00  0.000E+00  0.000E+00  0.000E+00  1.04992E+03  6.676E-01  1.497E+01  5.241E-02  1.223E+00
   1    8    6     5     4    9.7343E+00  1.3577E-01   9.5985E+00  0.000E+00  0.000E+00  0.000E+00  1.04691E+03  6.637E-01  1.482E+01  3.706E-02  1.221E+00
   1    9    6     6     1    7.8783E+01  3.2569E-01   7.8458E+01  0.000E+00  0.000E+00  0.000E+00  1.04516E+03  2.428E+00  1.200E+01  6.000E-02  1.809E+00
   1   10    7     6     2    7.8458E+01  3.2533E-01   7.8132E+01  0.000E+00  0.000E+00  0.000E+00  1.04060E+03  2.422E+00  1.200E+01  6.000E-02  1.807E+00
   1   11    7     6     3    7.8132E+01  3.2497E-01   7.7807E+01  0.000E+00  0.000E+00  0.000E+00  1.03605E+03  2.416E+00  1.200E+01  6.000E-02  1.805E+00
   1   12    7     6     4    7.7807E+01  3.2461E-01   7.7483E+01  0.000E+00  0.000E+00  0.000E+00  1.03150E+03  2.410E+00  1.200E+01  6.000E-02  1.803E+00
   1   13    7     6     5    7.7483E+01  2.8173E-02   7.7455E+01  0.000E+00  0.000E+00  0.000E+00  1.02832E+03  2.407E+00  1.200E+01  2.400E-02  3.913E-01
   1   14    9     7     1    1.5000E+02  1.3347E+00   1.4867E+02  0.000E+00  0.000E+00  0.000E+00  1.03987E+03  2.288E+00  5.529E+01  5.593E-01  7.954E-01
   1   13    8     7     2    1.4867E+02  1.8149E+00   1.4685E+02  0.000E+00  0.000E+00  0.000E+00  1.03478E+03  2.279E+00  5.526E+01  6.148E-01  9.840E-01
   1   13    7     7     3    1.4685E+02  1.4230E+00   1.4543E+02  0.000E+00  0.000E+00  0.000E+00  1.02969E+03  2.271E+00  5.522E+01  5.585E-01  8.493E-01
   1   13    6     8     1    2.2288E+02  1.1012E+00   2.2178E+02  0.000E+00  0.000E+00  0.000E+00  1.02514E+03  3.265E+00  4.734E+01  4.824E-01  7.609E-01
   1   13    5     8     2    2.2178E+02  3.4120E-01   2.2144E+02  0.000E+00  0.000E+00  0.000E+00  1.01889E+03  3.261E+00  4.728E+01  4.818E-01  2.361E-01
   1   13    4     8     3    2.2144E+02 -1.5884E+00   2.2303E+02  0.000E+00  0.000E+00  0.000E+00  1.01264E+03  3.264E+00  4.733E+01  4.823E+00 -1.098E-01
   1   13    3     8     4    2.2303E+02 -2.8425E+00   2.2587E+02  0.000E+00  0.000E+00  0.000E+00  1.00640E+03  3.276E+00  4.751E+01  4.841E+00 -1.957E-01
   1   13    2     8     5    2.2587E+02 -2.1343E+00   2.2800E+02  0.000E+00  0.000E+00  0.000E+00  1.00016E+03  3.290E+00  4.770E+01  4.861E+00 -1.463E-01
   1   13    1     8     6    2.2800E+02 -1.3206E+00   2.2933E+02  0.000E+00  0.000E+00  0.000E+00  9.95174E+02  3.299E+00  4.784E+01  2.925E+00 -1.505E-01



 UBDSV3 SAVING "           GW ET" ON UNIT  61 AT TIME STEP  5, STRESS PERIOD   8
 UBDSV3 SAVING "    UZF RECHARGE" ON UNIT  61 AT TIME STEP  5, STRESS PERIOD   8
 UBDSV3 SAVING " SURFACE LEAKAGE" ON UNIT  61 AT TIME STEP  5, STRESS PERIOD   8
 UBDSV3 SAVING "       HORT+DUNN" ON UNIT  61 AT TIME STEP  5, STRESS PERIOD   8
 UBDSV3 SAVING "  STORAGE CHANGE" ON UNIT  61 AT TIME STEP  5, STRESS PERIOD   8


UNSATURATED ZONE PACKAGE VOLUMETRIC BUDGET FOR  TIME STEP     5 STRESS PERIOD    8
  ------------------------------------------------------------------------------



     CUMULATIVE VOLUMES      L**3       RATES FOR THIS TIME STEP      L**3/T
     ------------------                 ------------------------

           IN:                                      IN:
           ---                                      ---
        INFILTRATION =   109823414.3752          INFILTRATION =          60.8475

          OUT:                                     OUT:
          ----                                     ----
              UZF ET =    32055457.4572                UZF ET =          12.3849
        UZF RECHARGE =     6890250.6442          UZF RECHARGE =           0.2159

            IN - OUT =    70877706.2739              IN - OUT =          48.2468

          STORAGE:                                 STORAGE:
          --------                                 --------
      STORAGE CHANGE =    70899975.6644        STORAGE CHANGE =          48.2468

 PERCENT DISCREPANCY IS DIFFERENCE BETWEEN IN-OUT MINUS CHANGE IN STORAGE
 DIVIDED BY THE AVERAGE OF IN AND OUT TIMES 100

 PERCENT DISCREPANCY =          -0.01     PERCENT DISCREPANCY =           0.00






 

            AWU WELLS     PERIOD    8   STEP   5
 AWU WELL      1   LAYER   1   ROW     6   COL     4   RATE    -10.0000    
 AWU WELL      2   LAYER   1   ROW     6   COL     5   RATE    -10.0000    
 AWU WELL      3   LAYER   1   ROW     7   COL     4   RATE    -10.0000    
 AWU WELL      4   LAYER   1   ROW     7   COL     5   RATE    -10.0000    
 AWU WELL      5   LAYER   1   ROW     8   COL     4   RATE    -10.0000    
 AWU WELL      6   LAYER   1   ROW     8   COL     5   RATE    -10.0000    
 
 

        GW IRRIGATION     PERIOD    8   STEP   5
 AWU WELL      1   ROW     6   COL     4   RATE     10.0000    
 AWU WELL      2   ROW     6   COL     5   RATE     10.0000    
 AWU WELL      3   ROW     7   COL     4   RATE     10.0000    
 AWU WELL      4   ROW     7   COL     5   RATE     10.0000    
 AWU WELL      5   ROW     8   COL     4   RATE     10.0000    
 AWU WELL      6   ROW     8   COL     5   RATE     10.0000    
 
1
  VOLUMETRIC BUDGET FOR ENTIRE MODEL AT END OF TIME STEP    5, STRESS PERIOD   8
  ------------------------------------------------------------------------------

     CUMULATIVE VOLUMES      L**3       RATES FOR THIS TIME STEP      L**3/T
     ------------------                 ------------------------

           IN:                                      IN:
           ---                                      ---
               AWU WELLS =    96015608.0000                 AWU WELLS =          60.0000
      DIVERSION SEGMENTS =           0.0000        DIVERSION SEGMENTS =           0.0000
           GW IRRIGATION =           0.0000             GW IRRIGATION =           0.0000
           SW IRRIGATION =           0.0000             SW IRRIGATION =           0.0000
        SYSTEM LOSSES GW =           0.0000          SYSTEM LOSSES GW =           0.0000
        SYSTEM LOSSES SW =           0.0000          SYSTEM LOSSES SW =           0.0000

                TOTAL IN =    96015608.0000                  TOTAL IN =          60.0000

          OUT:                                     OUT:
          ----                                     ----
               AWU WELLS =           0.0000                 AWU WELLS =           0.0000
      DIVERSION SEGMENTS =           0.0000        DIVERSION SEGMENTS =           0.0000
           GW IRRIGATION =    96015608.0000             GW IRRIGATION =          60.0000
           SW IRRIGATION =           0.0000             SW IRRIGATION =           0.0000
        SYSTEM LOSSES GW =           0.0000          SYSTEM LOSSES GW =           0.0000
        SYSTEM LOSSES SW =           0.0000          SYSTEM LOSSES SW =           0.0000

               TOTAL OUT =    96015608.0000                 TOTAL OUT =          60.0000

                IN - OUT =           0.0000                  IN - OUT =           0.0000

     PERCENT DISCREPANCY =           0.00         PERCENT DISCREPANCY =           0.00



1
  VOLUMETRIC BUDGET FOR ENTIRE MODEL AT END OF TIME STEP    5, STRESS PERIOD   8
  ------------------------------------------------------------------------------

     CUMULATIVE VOLUMES      L**3       RATES FOR THIS TIME STEP      L**3/T
     ------------------                 ------------------------

           IN:                                      IN:
           ---                                      ---
             STORAGE     =   133927528.0000               STORAGE     =          63.7657
       CONSTANT HEAD     =           0.0000         CONSTANT HEAD     =           0.0000
     HEAD DEP BOUNDS     =     4655471.0000       HEAD DEP BOUNDS     =           0.2857
      STREAM LEAKAGE     =   209796096.0000        STREAM LEAKAGE     =          13.5603
        UZF RECHARGE     =     6890249.5000          UZF RECHARGE     =           0.2159
               GW ET     =           0.0000                 GW ET     =           0.0000
     SURFACE LEAKAGE     =           0.0000       SURFACE LEAKAGE     =           0.0000
           AWU WELLS     =           0.0000             AWU WELLS     =           0.0000

                TOTAL IN =   355269312.0000                  TOTAL IN =          77.8275

          OUT:                                     OUT:
          ----                                     ----
             STORAGE     =    78330192.0000               STORAGE     =           1.3164
       CONSTANT HEAD     =           0.0000         CONSTANT HEAD     =           0.0000
     HEAD DEP BOUNDS     =     4774848.5000       HEAD DEP BOUNDS     =           0.2898
      STREAM LEAKAGE     =   159734384.0000        STREAM LEAKAGE     =           7.8857
        UZF RECHARGE     =           0.0000          UZF RECHARGE     =           0.0000
               GW ET     =    16421158.0000                 GW ET     =           8.3358
     SURFACE LEAKAGE     =           0.0000       SURFACE LEAKAGE     =           0.0000
           AWU WELLS     =    96015608.0000             AWU WELLS     =          60.0000

               TOTAL OUT =   355276192.0000                 TOTAL OUT =          77.8277

                IN - OUT =       -6880.0000                  IN - OUT =      -1.9836E-04

     PERCENT DISCREPANCY =          -0.00         PERCENT DISCREPANCY =          -0.00






         TIME SUMMARY AT END OF TIME STEP    5 IN STRESS PERIOD    8
                    SECONDS     MINUTES      HOURS       DAYS        YEARS
                    -----------------------------------------------------------
   TIME STEP LENGTH  87600.      1460.0      24.333      1.0139     2.77588E-03
 STRESS PERIOD TIME 4.38000E+05  7300.0      121.67      5.0694     1.38794E-02
         TOTAL TIME 1.62924E+07 2.71540E+05  4525.7      188.57     0.51627    
1
 
 SOLVING FOR HEAD 
                                                   Max.-Head-Change                         Max.-Flux-Residual
  Residual-Control   Outer-Iter.   Inner-Iter.     Column Row Layer    Maximum-Head-Change  Column Row Layer    Maximum-Flux-Residual          L2-NORM 
          0                 1           2             4    7     1      -0.1733717228E+00       4    7    1        -0.9075200646E+01      0.2118124004E+02
          0                 2           2             4    7     1       0.1686405342E-01       4    7    1         0.9075003188E+00      0.2118358946E+01
          0                 3           2             4    7     1      -0.1148382418E-02       4    7    1        -0.6352523656E-01      0.1482557619E+00
          0                 4           1             4    7     1       0.4569519720E-04       4    7    1         0.2598184921E-02      0.6063009802E-02

    ------------------------------------------------
       NWT REQUIRED            4 OUTER ITERATIONS 
       AND A TOTAL OF          7 INNER ITERATIONS.
    ------------------------------------------------

 NO OUTPUT CONTROL FOR STRESS PERIOD    8   TIME STEP    6
 
 SOLVING FOR HEAD 
                                                   Max.-Head-Change                         Max.-Flux-Residual
  Residual-Control   Outer-Iter.   Inner-Iter.     Column Row Layer    Maximum-Head-Change  Column Row Layer    Maximum-Flux-Residual          L2-NORM 
          0                 1           2             5    8     1       0.3628423215E-01       5    8    1         0.1983222423E+01      0.4797072300E+01
          0                 2           2             5    8     1      -0.3521946882E-02       5    8    1        -0.1976207715E+00      0.4760351648E+00
          0                 3           2             5    8     1       0.2398310013E-03       5    8    1         0.1383342449E-01      0.3321073059E-01
          0                 4           1             5    8     1      -0.9543102479E-05       5    8    1        -0.5657880170E-03      0.1356522102E-02

    ------------------------------------------------
       NWT REQUIRED            4 OUTER ITERATIONS 
       AND A TOTAL OF          7 INNER ITERATIONS.
    ------------------------------------------------

 NO OUTPUT CONTROL FOR STRESS PERIOD    8   TIME STEP    7
 
 SOLVING FOR HEAD 
                                                   Max.-Head-Change                         Max.-Flux-Residual
  Residual-Control   Outer-Iter.   Inner-Iter.     Column Row Layer    Maximum-Head-Change  Column Row Layer    Maximum-Flux-Residual          L2-NORM 
          0                 1           2             5    8     1       0.3461087115E-01       5    8    1         0.1887418526E+01      0.4601263716E+01
          0                 2           2             5    8     1      -0.3366742257E-02       5    8    1        -0.1887452264E+00      0.4569274340E+00
          0                 3           2             5    8     1       0.2292621939E-03       5    8    1         0.1321213962E-01      0.3188704110E-01
          0                 4           1             5    8     1      -0.9122559200E-05       5    8    1        -0.5403774007E-03      0.1303262377E-02

    ------------------------------------------------
       NWT REQUIRED            4 OUTER ITERATIONS 
       AND A TOTAL OF          7 INNER ITERATIONS.
    ------------------------------------------------

 NO OUTPUT CONTROL FOR STRESS PERIOD    8   TIME STEP    8
 
 SOLVING FOR HEAD 
                                                   Max.-Head-Change                         Max.-Flux-Residual
  Residual-Control   Outer-Iter.   Inner-Iter.     Column Row Layer    Maximum-Head-Change  Column Row Layer    Maximum-Flux-Residual          L2-NORM 
          0                 1           2             4    7     1      -0.1753438373E-01       4    7    1        -0.9314252486E+00      0.2762944984E+01
          0                 2           2             4    7     1       0.1705833831E-02       4    7    1         0.9315399835E-01      0.2712459460E+00
          0                 3           1             4    7     1      -0.1159408471E-03       4    7    1        -0.6508629853E-02      0.1883583087E-01
          0                 4           1             4    7     1       0.4827625404E-05       4    7    1         0.2783626508E-03      0.7833034344E-03

    ------------------------------------------------
       NWT REQUIRED            4 OUTER ITERATIONS 
       AND A TOTAL OF          6 INNER ITERATIONS.
    ------------------------------------------------

 NO OUTPUT CONTROL FOR STRESS PERIOD    8   TIME STEP    9
 
 SOLVING FOR HEAD 
                                                   Max.-Head-Change                         Max.-Flux-Residual
  Residual-Control   Outer-Iter.   Inner-Iter.     Column Row Layer    Maximum-Head-Change  Column Row Layer    Maximum-Flux-Residual          L2-NORM 
          0                 1           2             5    8     1       0.3258722753E-01       5    8    1         0.1774452283E+01      0.4359410594E+01
          0                 2           2             5    8     1      -0.3169890085E-02       5    8    1        -0.1774481225E+00      0.4329142970E+00
          0                 3           2             5    8     1       0.2158573577E-03       5    8    1         0.1242134655E-01      0.3023121978E-01
          0                 4           1             5    8     1      -0.8589167962E-05       5    8    1        -0.5080338997E-03      0.1237257582E-02

    ------------------------------------------------
       NWT REQUIRED            4 OUTER ITERATIONS 
       AND A TOTAL OF          7 INNER ITERATIONS.
    ------------------------------------------------

 OUTPUT CONTROL FOR STRESS PERIOD    8   TIME STEP   10
    PRINT BUDGET
    SAVE BUDGET
 UBDSV1 SAVING "         STORAGE" ON UNIT 102 AT TIME STEP 10, STRESS PERIOD   8
 UBDSV2 SAVING "   CONSTANT HEAD" ON UNIT 102 AT TIME STEP 10, STRESS PERIOD   8
 UBDSV1 SAVING "FLOW RIGHT FACE " ON UNIT 102 AT TIME STEP 10, STRESS PERIOD   8
 UBDSV1 SAVING "FLOW FRONT FACE " ON UNIT 102 AT TIME STEP 10, STRESS PERIOD   8

  HEAD DEP BOUNDS   PERIOD    8   STEP    10
 BOUNDARY      1   LAYER   1   ROW    13   COL     1   RATE   -0.287172    
 BOUNDARY      2   LAYER   1   ROW    14   COL     9   RATE    0.285674    



 STREAM LISTING     PERIOD      8   STEP       10

 LAYER ROW COL. STREAM  RCH.  FLOW INTO     FLOW TO   FLOW OUT OF   OVRLND.     DIRECT     STREAM       STREAM     STREAM     STREAM   STREAMBED  STREAMBED
                SEG.NO.  NO.  STRM. RCH.    AQUIFER    STRM. RCH.    RUNOFF     PRECIP       ET          HEAD       DEPTH      WIDTH   CONDCTNC.   GRADIENT

   1    1    1     1     1    7.5000E+01  4.2232E-01   7.4578E+01  0.000E+00  0.000E+00  0.000E+00  1.09475E+03  1.698E+00  1.998E+01  8.990E-02  1.566E+00
   1    2    2     1     2    7.4578E+01  6.5422E-01   7.3923E+01  0.000E+00  0.000E+00  0.000E+00  1.08975E+03  1.692E+00  1.992E+01  1.394E-01  1.564E+00
   1    3    3     1     3    7.3923E+01  5.5813E-01   7.3365E+01  0.000E+00  0.000E+00  0.000E+00  1.08410E+03  1.685E+00  1.985E+01  1.191E-01  1.562E+00
   1    3    4     1     4    7.3365E+01  5.1411E-01   7.2851E+01  0.000E+00  0.000E+00  0.000E+00  1.07909E+03  1.679E+00  1.980E+01  1.099E-01  1.560E+00
   1    4    5     2     1    7.0851E+01  4.0967E-01   7.0442E+01  0.000E+00  0.000E+00  0.000E+00  1.07419E+03  2.252E+00  1.200E+01  7.800E-02  1.751E+00
   1    5    6     2     2    7.0442E+01  3.1471E-01   7.0127E+01  0.000E+00  0.000E+00  0.000E+00  1.06875E+03  2.245E+00  1.200E+01  6.000E-02  1.748E+00
   1    6    6     2     3    7.0127E+01  3.1435E-01   6.9812E+01  0.000E+00  0.000E+00  0.000E+00  1.06403E+03  2.239E+00  1.200E+01  6.000E-02  1.746E+00
   1    7    6     2     4    6.9812E+01  3.1399E-01   6.9498E+01  0.000E+00  0.000E+00  0.000E+00  1.05931E+03  2.233E+00  1.200E+01  6.000E-02  1.744E+00
   1    8    6     2     5    6.9498E+01  3.1363E-01   6.9185E+01  0.000E+00  0.000E+00  0.000E+00  1.05459E+03  2.227E+00  1.200E+01  6.000E-02  1.742E+00
   1    3    5     3     1    2.0000E+00  2.8252E-01   1.7175E+00  0.000E+00  0.000E+00  0.000E+00  1.07555E+03  1.909E+00  9.636E+00  7.227E-02  1.955E+00
   1    3    6     3     2    1.7175E+00  2.4905E-01   1.4684E+00  0.000E+00  0.000E+00  0.000E+00  1.07264E+03  1.727E+00  8.909E+00  6.682E-02  1.864E+00
   1    3    7     3     3    1.4684E+00  1.9718E-01   1.2712E+00  0.000E+00  0.000E+00  0.000E+00  1.06987E+03  1.555E+00  8.218E+00  5.547E-02  1.777E+00
   1    4    8     3     4    1.2712E+00  2.2567E-01   1.0456E+00  0.000E+00  0.000E+00  0.000E+00  1.06682E+03  1.364E+00  7.455E+00  6.709E-02  1.682E+00
   1    5    8     3     5    1.0456E+00  1.5790E-01   8.8768E-01  0.000E+00  0.000E+00  0.000E+00  1.06362E+03  1.164E+00  6.655E+00  4.991E-02  1.582E+00
   1    6    8     3     6    8.8768E-01  5.5980E-02   8.3170E-01  0.000E+00  0.000E+00  0.000E+00  1.06158E+03  1.036E+00  6.145E+00  1.844E-02  1.518E+00
   1    5   10     4     1    1.0000E+01  9.0919E-02   9.9091E+00  0.000E+00  0.000E+00  0.000E+00  1.07836E+03  6.368E-01  1.000E+01  2.500E-02  1.212E+00
   1    5    9     4     2    9.9091E+00  1.8158E-01   9.7275E+00  0.000E+00  0.000E+00  0.000E+00  1.07154E+03  6.315E-01  1.000E+01  5.000E-02  1.211E+00
   1    6    8     4     3    9.7275E+00  1.2689E-01   9.6006E+00  0.000E+00  0.000E+00  0.000E+00  1.06381E+03  6.256E-01  1.000E+01  3.500E-02  1.209E+00
   1    6    8     5     1    1.0432E+01  2.2686E-01   1.0205E+01  0.000E+00  0.000E+00  0.000E+00  1.05868E+03  6.790E-01  1.542E+01  6.166E-02  1.226E+00
   1    7    7     5     2    1.0205E+01  2.7894E-01   9.9265E+00  0.000E+00  0.000E+00  0.000E+00  1.05417E+03  6.732E-01  1.519E+01  7.594E-02  1.224E+00
   1    8    7     5     3    9.9265E+00  1.9221E-01   9.7343E+00  0.000E+00  0.000E+00  0.000E+00  1.04992E+03  6.676E-01  1.497E+01  5.241E-02  1.223E+00
   1    8    6     5     4    9.7343E+00  1.3577E-01   9.5985E+00  0.000E+00  0.000E+00  0.000E+00  1.04691E+03  6.637E-01  1.482E+01  3.706E-02  1.221E+00
   1    9    6     6     1    7.8783E+01  3.2569E-01   7.8458E+01  0.000E+00  0.000E+00  0.000E+00  1.04516E+03  2.428E+00  1.200E+01  6.000E-02  1.809E+00
   1   10    7     6     2    7.8458E+01  3.2533E-01   7.8132E+01  0.000E+00  0.000E+00  0.000E+00  1.04060E+03  2.422E+00  1.200E+01  6.000E-02  1.807E+00
   1   11    7     6     3    7.8132E+01  3.2497E-01   7.7807E+01  0.000E+00  0.000E+00  0.000E+00  1.03605E+03  2.416E+00  1.200E+01  6.000E-02  1.805E+00
   1   12    7     6     4    7.7807E+01  3.2461E-01   7.7483E+01  0.000E+00  0.000E+00  0.000E+00  1.03150E+03  2.410E+00  1.200E+01  6.000E-02  1.803E+00
   1   13    7     6     5    7.7483E+01  2.8496E-02   7.7454E+01  0.000E+00  0.000E+00  0.000E+00  1.02832E+03  2.407E+00  1.200E+01  2.400E-02  3.958E-01
   1   14    9     7     1    1.5000E+02  1.3346E+00   1.4867E+02  0.000E+00  0.000E+00  0.000E+00  1.03987E+03  2.288E+00  5.529E+01  5.593E-01  7.954E-01
   1   13    8     7     2    1.4867E+02  1.8152E+00   1.4685E+02  0.000E+00  0.000E+00  0.000E+00  1.03478E+03  2.279E+00  5.526E+01  6.148E-01  9.842E-01
   1   13    7     7     3    1.4685E+02  1.4305E+00   1.4542E+02  0.000E+00  0.000E+00  0.000E+00  1.02969E+03  2.271E+00  5.522E+01  5.585E-01  8.538E-01
   1   13    6     8     1    2.2287E+02  1.1171E+00   2.2176E+02  0.000E+00  0.000E+00  0.000E+00  1.02514E+03  3.265E+00  4.734E+01  4.824E-01  7.719E-01
   1   13    5     8     2    2.2176E+02  3.7529E-01   2.2138E+02  0.000E+00  0.000E+00  0.000E+00  1.01889E+03  3.261E+00  4.728E+01  4.818E-01  2.597E-01
   1   13    4     8     3    2.2138E+02 -1.3291E+00   2.2271E+02  0.000E+00  0.000E+00  0.000E+00  1.01264E+03  3.263E+00  4.732E+01  4.822E+00 -9.188E-02
   1   13    3     8     4    2.2271E+02 -2.5925E+00   2.2530E+02  0.000E+00  0.000E+00  0.000E+00  1.00640E+03  3.274E+00  4.747E+01  4.838E+00 -1.786E-01
   1   13    2     8     5    2.2530E+02 -1.9734E+00   2.2728E+02  0.000E+00  0.000E+00  0.000E+00  1.00016E+03  3.286E+00  4.765E+01  4.856E+00 -1.355E-01
   1   13    1     8     6    2.2728E+02 -1.1313E+00   2.2841E+02  0.000E+00  0.000E+00  0.000E+00  9.95170E+02  3.295E+00  4.778E+01  2.921E+00 -1.291E-01



 UBDSV3 SAVING "           GW ET" ON UNIT  61 AT TIME STEP 10, STRESS PERIOD   8
 UBDSV3 SAVING "    UZF RECHARGE" ON UNIT  61 AT TIME STEP 10, STRESS PERIOD   8
 UBDSV3 SAVING " SURFACE LEAKAGE" ON UNIT  61 AT TIME STEP 10, STRESS PERIOD   8
 UBDSV3 SAVING "       HORT+DUNN" ON UNIT  61 AT TIME STEP 10, STRESS PERIOD   8
 UBDSV3 SAVING "  STORAGE CHANGE" ON UNIT  61 AT TIME STEP 10, STRESS PERIOD   8


UNSATURATED ZONE PACKAGE VOLUMETRIC BUDGET FOR  TIME STEP    10 STRESS PERIOD    8
  ------------------------------------------------------------------------------



     CUMULATIVE VOLUMES      L**3       RATES FOR THIS TIME STEP      L**3/T
     ------------------                 ------------------------

           IN:                                      IN:
           ---                                      ---
        INFILTRATION =   116471756.3752          INFILTRATION =           0.8475

          OUT:                                     OUT:
          ----                                     ----
              UZF ET =    37576196.1909                UZF ET =          12.6049
        UZF RECHARGE =     6981466.8230          UZF RECHARGE =           0.2041

            IN - OUT =    71914093.3614              IN - OUT =         -11.9615

          STORAGE:                                 STORAGE:
          --------                                 --------
      STORAGE CHANGE =    71945203.7940        STORAGE CHANGE =         -11.9521

 PERCENT DISCREPANCY IS DIFFERENCE BETWEEN IN-OUT MINUS CHANGE IN STORAGE
 DIVIDED BY THE AVERAGE OF IN AND OUT TIMES 100

 PERCENT DISCREPANCY =          -0.01     PERCENT DISCREPANCY =          -0.07






 

            AWU WELLS     PERIOD    8   STEP  10
 AWU WELL      1   LAYER   1   ROW     6   COL     4   RATE     0.00000    
 AWU WELL      2   LAYER   1   ROW     6   COL     5   RATE     0.00000    
 AWU WELL      3   LAYER   1   ROW     7   COL     4   RATE     0.00000    
 AWU WELL      4   LAYER   1   ROW     7   COL     5   RATE     0.00000    
 AWU WELL      5   LAYER   1   ROW     8   COL     4   RATE     0.00000    
 AWU WELL      6   LAYER   1   ROW     8   COL     5   RATE     0.00000    
 
 

        GW IRRIGATION     PERIOD    8   STEP  10
 AWU WELL      1   ROW     6   COL     4   RATE     0.00000    
 AWU WELL      2   ROW     6   COL     5   RATE     0.00000    
 AWU WELL      3   ROW     7   COL     4   RATE     0.00000    
 AWU WELL      4   ROW     7   COL     5   RATE     0.00000    
 AWU WELL      5   ROW     8   COL     4   RATE     0.00000    
 AWU WELL      6   ROW     8   COL     5   RATE     0.00000    
 
1
  VOLUMETRIC BUDGET FOR ENTIRE MODEL AT END OF TIME STEP   10, STRESS PERIOD   8
  ------------------------------------------------------------------------------

     CUMULATIVE VOLUMES      L**3       RATES FOR THIS TIME STEP      L**3/T
     ------------------                 ------------------------

           IN:                                      IN:
           ---                                      ---
               AWU WELLS =   102292744.0000                 AWU WELLS =           0.0000
      DIVERSION SEGMENTS =           0.0000        DIVERSION SEGMENTS =           0.0000
           GW IRRIGATION =           0.0000             GW IRRIGATION =           0.0000
           SW IRRIGATION =           0.0000             SW IRRIGATION =           0.0000
        SYSTEM LOSSES GW =           0.0000          SYSTEM LOSSES GW =           0.0000
        SYSTEM LOSSES SW =           0.0000          SYSTEM LOSSES SW =           0.0000

                TOTAL IN =   102292744.0000                  TOTAL IN =           0.0000

          OUT:                                     OUT:
          ----                                     ----
               AWU WELLS =           0.0000                 AWU WELLS =           0.0000
      DIVERSION SEGMENTS =           0.0000        DIVERSION SEGMENTS =           0.0000
           GW IRRIGATION =   102292744.0000             GW IRRIGATION =           0.0000
           SW IRRIGATION =           0.0000             SW IRRIGATION =           0.0000
        SYSTEM LOSSES GW =           0.0000          SYSTEM LOSSES GW =           0.0000
        SYSTEM LOSSES SW =           0.0000          SYSTEM LOSSES SW =           0.0000

               TOTAL OUT =   102292744.0000                 TOTAL OUT =           0.0000

                IN - OUT =           0.0000                  IN - OUT =           0.0000

     PERCENT DISCREPANCY =           0.00         PERCENT DISCREPANCY =           0.00



1
  VOLUMETRIC BUDGET FOR ENTIRE MODEL AT END OF TIME STEP   10, STRESS PERIOD   8
  ------------------------------------------------------------------------------

     CUMULATIVE VOLUMES      L**3       RATES FOR THIS TIME STEP      L**3/T
     ------------------                 ------------------------

           IN:                                      IN:
           ---                                      ---
             STORAGE     =   143889728.0000               STORAGE     =          11.2968
       CONSTANT HEAD     =           0.0000         CONSTANT HEAD     =           0.0000
     HEAD DEP BOUNDS     =     4780597.0000       HEAD DEP BOUNDS     =           0.2857
      STREAM LEAKAGE     =   215751056.0000        STREAM LEAKAGE     =          13.6183
        UZF RECHARGE     =     6981465.5000          UZF RECHARGE     =           0.2041
               GW ET     =           0.0000                 GW ET     =           0.0000
     SURFACE LEAKAGE     =           0.0000       SURFACE LEAKAGE     =           0.0000
           AWU WELLS     =           0.0000             AWU WELLS     =           0.0000

                TOTAL IN =   371402848.0000                  TOTAL IN =          25.4049

          OUT:                                     OUT:
          ----                                     ----
             STORAGE     =    81229912.0000               STORAGE     =           9.8879
       CONSTANT HEAD     =           0.0000         CONSTANT HEAD     =           0.0000
     HEAD DEP BOUNDS     =     4901061.0000       HEAD DEP BOUNDS     =           0.2872
      STREAM LEAKAGE     =   162949952.0000        STREAM LEAKAGE     =           7.0262
        UZF RECHARGE     =           0.0000          UZF RECHARGE     =           0.0000
               GW ET     =    20036048.0000                 GW ET     =           8.2036
     SURFACE LEAKAGE     =           0.0000       SURFACE LEAKAGE     =           0.0000
           AWU WELLS     =   102292744.0000             AWU WELLS     =           0.0000

               TOTAL OUT =   371409728.0000                 TOTAL OUT =          25.4049

                IN - OUT =       -6880.0000                  IN - OUT =       1.9073E-05

     PERCENT DISCREPANCY =          -0.00         PERCENT DISCREPANCY =           0.00






         TIME SUMMARY AT END OF TIME STEP   10 IN STRESS PERIOD    8
                    SECONDS     MINUTES      HOURS       DAYS        YEARS
                    -----------------------------------------------------------
   TIME STEP LENGTH  87600.      1460.0      24.333      1.0139     2.77588E-03
 STRESS PERIOD TIME 8.76000E+05  14600.      243.33      10.139     2.77588E-02
         TOTAL TIME 1.67304E+07 2.78840E+05  4647.3      193.64     0.53015    
1
 
 SOLVING FOR HEAD 
                                                   Max.-Head-Change                         Max.-Flux-Residual
  Residual-Control   Outer-Iter.   Inner-Iter.     Column Row Layer    Maximum-Head-Change  Column Row Layer    Maximum-Flux-Residual          L2-NORM 
          0                 1           2             5    8     1       0.3115221980E-01       5    8    1         0.1694748225E+01      0.4197163984E+01
          0                 2           2             5    8     1      -0.3030298618E-02       5    8    1        -0.1694774118E+00      0.4167212231E+00
          0                 3           2             5    8     1       0.2063517391E-03       5    8    1         0.1186339947E-01      0.2910753861E-01
          0                 4           1             5    8     1      -0.8210930391E-05       5    8    1        -0.4852138222E-03      0.1192253550E-02

    ------------------------------------------------
       NWT REQUIRED            4 OUTER ITERATIONS 
       AND A TOTAL OF          7 INNER ITERATIONS.
    ------------------------------------------------

 NO OUTPUT CONTROL FOR STRESS PERIOD    8   TIME STEP   11
 
 SOLVING FOR HEAD 
                                                   Max.-Head-Change                         Max.-Flux-Residual
  Residual-Control   Outer-Iter.   Inner-Iter.     Column Row Layer    Maximum-Head-Change  Column Row Layer    Maximum-Flux-Residual          L2-NORM 
          0                 1           2             5   13     1      -0.1337656545E-01       5   13    1        -0.7228343575E+00      0.2181511772E+01
          0                 2           2             5   13     1       0.1300535574E-02       5   13    1         0.7225622985E-01      0.2125725816E+00
          0                 3           1             5   13     1      -0.8850088777E-04       5   13    1        -0.5055272031E-02      0.1478078816E-01

    ------------------------------------------------
       NWT REQUIRED            3 OUTER ITERATIONS 
       AND A TOTAL OF          5 INNER ITERATIONS.
    ------------------------------------------------

 NO OUTPUT CONTROL FOR STRESS PERIOD    8   TIME STEP   12
 
 SOLVING FOR HEAD 
                                                   Max.-Head-Change                         Max.-Flux-Residual
  Residual-Control   Outer-Iter.   Inner-Iter.     Column Row Layer    Maximum-Head-Change  Column Row Layer    Maximum-Flux-Residual          L2-NORM 
          0                 1           2             5    6     1       0.2926814566E-01       5    6    1         0.1587822181E+01      0.3973411731E+01
          0                 2           2             5    6     1      -0.2846982749E-02       5    6    1        -0.1587815513E+00      0.3944232894E+00
          0                 3           2             5    6     1       0.1938690718E-03       5    6    1         0.1111471969E-01      0.2756331542E-01
          0                 4           1             5    6     1      -0.7714214432E-05       5    6    1        -0.4545926486E-03      0.1130098055E-02

    ------------------------------------------------
       NWT REQUIRED            4 OUTER ITERATIONS 
       AND A TOTAL OF          7 INNER ITERATIONS.
    ------------------------------------------------

 NO OUTPUT CONTROL FOR STRESS PERIOD    8   TIME STEP   13
 
 SOLVING FOR HEAD 
                                                   Max.-Head-Change                         Max.-Flux-Residual
  Residual-Control   Outer-Iter.   Inner-Iter.     Column Row Layer    Maximum-Head-Change  Column Row Layer    Maximum-Flux-Residual          L2-NORM 
          0                 1           2             5    6     1       0.2808310530E-01       5    6    1         0.1522299191E+01      0.3837335933E+01
          0                 2           2             5    6     1      -0.2731711433E-02       5    6    1        -0.1522293069E+00      0.3808125214E+00
          0                 3           2             5    6     1       0.1860195145E-03       5    6    1         0.1065606188E-01      0.2661731373E-01
          0                 4           1             5    6     1      -0.7401873252E-05       5    6    1        -0.4358335154E-03      0.1092047432E-02

    ------------------------------------------------
       NWT REQUIRED            4 OUTER ITERATIONS 
       AND A TOTAL OF          7 INNER ITERATIONS.
    ------------------------------------------------

 NO OUTPUT CONTROL FOR STRESS PERIOD    8   TIME STEP   14
 
 SOLVING FOR HEAD 
                                                   Max.-Head-Change                         Max.-Flux-Residual
  Residual-Control   Outer-Iter.   Inner-Iter.     Column Row Layer    Maximum-Head-Change  Column Row Layer    Maximum-Flux-Residual          L2-NORM 
          0                 1           2             5   13     1      -0.1190826474E-01       5   13    1        -0.6435359342E+00      0.1903308858E+01
          0                 2           2             5   13     1       0.1157774483E-02       5   13    1         0.6432850544E-01      0.1845446911E+00
          0                 3           1             5   13     1      -0.7878816034E-04       5   13    1        -0.4500701748E-02      0.1285735061E-01

    ------------------------------------------------
       NWT REQUIRED            3 OUTER ITERATIONS 
       AND A TOTAL OF          5 INNER ITERATIONS.
    ------------------------------------------------

 OUTPUT CONTROL FOR STRESS PERIOD    8   TIME STEP   15
    PRINT BUDGET
    SAVE BUDGET
 UBDSV1 SAVING "         STORAGE" ON UNIT 102 AT TIME STEP 15, STRESS PERIOD   8
 UBDSV2 SAVING "   CONSTANT HEAD" ON UNIT 102 AT TIME STEP 15, STRESS PERIOD   8
 UBDSV1 SAVING "FLOW RIGHT FACE " ON UNIT 102 AT TIME STEP 15, STRESS PERIOD   8
 UBDSV1 SAVING "FLOW FRONT FACE " ON UNIT 102 AT TIME STEP 15, STRESS PERIOD   8

  HEAD DEP BOUNDS   PERIOD    8   STEP    15
 BOUNDARY      1   LAYER   1   ROW    13   COL     1   RATE   -0.285226    
 BOUNDARY      2   LAYER   1   ROW    14   COL     9   RATE    0.285667    



 STREAM LISTING     PERIOD      8   STEP       15

 LAYER ROW COL. STREAM  RCH.  FLOW INTO     FLOW TO   FLOW OUT OF   OVRLND.     DIRECT     STREAM       STREAM     STREAM     STREAM   STREAMBED  STREAMBED
                SEG.NO.  NO.  STRM. RCH.    AQUIFER    STRM. RCH.    RUNOFF     PRECIP       ET          HEAD       DEPTH      WIDTH   CONDCTNC.   GRADIENT

   1    1    1     1     1    7.5000E+01  4.2232E-01   7.4578E+01  0.000E+00  0.000E+00  0.000E+00  1.09475E+03  1.698E+00  1.998E+01  8.990E-02  1.566E+00
   1    2    2     1     2    7.4578E+01  6.5422E-01   7.3923E+01  0.000E+00  0.000E+00  0.000E+00  1.08975E+03  1.692E+00  1.992E+01  1.394E-01  1.564E+00
   1    3    3     1     3    7.3923E+01  5.5813E-01   7.3365E+01  0.000E+00  0.000E+00  0.000E+00  1.08410E+03  1.685E+00  1.985E+01  1.191E-01  1.562E+00
   1    3    4     1     4    7.3365E+01  5.1411E-01   7.2851E+01  0.000E+00  0.000E+00  0.000E+00  1.07909E+03  1.679E+00  1.980E+01  1.099E-01  1.560E+00
   1    4    5     2     1    7.0851E+01  4.0967E-01   7.0442E+01  0.000E+00  0.000E+00  0.000E+00  1.07419E+03  2.252E+00  1.200E+01  7.800E-02  1.751E+00
   1    5    6     2     2    7.0442E+01  3.1471E-01   7.0127E+01  0.000E+00  0.000E+00  0.000E+00  1.06875E+03  2.245E+00  1.200E+01  6.000E-02  1.748E+00
   1    6    6     2     3    7.0127E+01  3.1435E-01   6.9812E+01  0.000E+00  0.000E+00  0.000E+00  1.06403E+03  2.239E+00  1.200E+01  6.000E-02  1.746E+00
   1    7    6     2     4    6.9812E+01  3.1399E-01   6.9498E+01  0.000E+00  0.000E+00  0.000E+00  1.05931E+03  2.233E+00  1.200E+01  6.000E-02  1.744E+00
   1    8    6     2     5    6.9498E+01  3.1363E-01   6.9185E+01  0.000E+00  0.000E+00  0.000E+00  1.05459E+03  2.227E+00  1.200E+01  6.000E-02  1.742E+00
   1    3    5     3     1    2.0000E+00  2.8252E-01   1.7175E+00  0.000E+00  0.000E+00  0.000E+00  1.07555E+03  1.909E+00  9.636E+00  7.227E-02  1.955E+00
   1    3    6     3     2    1.7175E+00  2.4905E-01   1.4684E+00  0.000E+00  0.000E+00  0.000E+00  1.07264E+03  1.727E+00  8.909E+00  6.682E-02  1.864E+00
   1    3    7     3     3    1.4684E+00  1.9718E-01   1.2712E+00  0.000E+00  0.000E+00  0.000E+00  1.06987E+03  1.555E+00  8.218E+00  5.547E-02  1.777E+00
   1    4    8     3     4    1.2712E+00  2.2567E-01   1.0456E+00  0.000E+00  0.000E+00  0.000E+00  1.06682E+03  1.364E+00  7.455E+00  6.709E-02  1.682E+00
   1    5    8     3     5    1.0456E+00  1.5790E-01   8.8768E-01  0.000E+00  0.000E+00  0.000E+00  1.06362E+03  1.164E+00  6.655E+00  4.991E-02  1.582E+00
   1    6    8     3     6    8.8768E-01  5.5980E-02   8.3170E-01  0.000E+00  0.000E+00  0.000E+00  1.06158E+03  1.036E+00  6.145E+00  1.844E-02  1.518E+00
   1    5   10     4     1    1.0000E+01  9.0919E-02   9.9091E+00  0.000E+00  0.000E+00  0.000E+00  1.07836E+03  6.368E-01  1.000E+01  2.500E-02  1.212E+00
   1    5    9     4     2    9.9091E+00  1.8158E-01   9.7275E+00  0.000E+00  0.000E+00  0.000E+00  1.07154E+03  6.315E-01  1.000E+01  5.000E-02  1.211E+00
   1    6    8     4     3    9.7275E+00  1.2689E-01   9.6006E+00  0.000E+00  0.000E+00  0.000E+00  1.06381E+03  6.256E-01  1.000E+01  3.500E-02  1.209E+00
   1    6    8     5     1    1.0432E+01  2.2686E-01   1.0205E+01  0.000E+00  0.000E+00  0.000E+00  1.05868E+03  6.790E-01  1.542E+01  6.166E-02  1.226E+00
   1    7    7     5     2    1.0205E+01  2.7894E-01   9.9265E+00  0.000E+00  0.000E+00  0.000E+00  1.05417E+03  6.732E-01  1.519E+01  7.594E-02  1.224E+00
   1    8    7     5     3    9.9265E+00  1.9221E-01   9.7343E+00  0.000E+00  0.000E+00  0.000E+00  1.04992E+03  6.676E-01  1.497E+01  5.241E-02  1.223E+00
   1    8    6     5     4    9.7343E+00  1.3577E-01   9.5985E+00  0.000E+00  0.000E+00  0.000E+00  1.04691E+03  6.637E-01  1.482E+01  3.706E-02  1.221E+00
   1    9    6     6     1    7.8783E+01  3.2569E-01   7.8458E+01  0.000E+00  0.000E+00  0.000E+00  1.04516E+03  2.428E+00  1.200E+01  6.000E-02  1.809E+00
   1   10    7     6     2    7.8458E+01  3.2533E-01   7.8132E+01  0.000E+00  0.000E+00  0.000E+00  1.04060E+03  2.422E+00  1.200E+01  6.000E-02  1.807E+00
   1   11    7     6     3    7.8132E+01  3.2497E-01   7.7807E+01  0.000E+00  0.000E+00  0.000E+00  1.03605E+03  2.416E+00  1.200E+01  6.000E-02  1.805E+00
   1   12    7     6     4    7.7807E+01  3.2461E-01   7.7483E+01  0.000E+00  0.000E+00  0.000E+00  1.03150E+03  2.410E+00  1.200E+01  6.000E-02  1.803E+00
   1   13    7     6     5    7.7483E+01  2.8784E-02   7.7454E+01  0.000E+00  0.000E+00  0.000E+00  1.02832E+03  2.407E+00  1.200E+01  2.400E-02  3.998E-01
   1   14    9     7     1    1.5000E+02  1.3345E+00   1.4867E+02  0.000E+00  0.000E+00  0.000E+00  1.03987E+03  2.288E+00  5.529E+01  5.593E-01  7.953E-01
   1   13    8     7     2    1.4867E+02  1.8158E+00   1.4685E+02  0.000E+00  0.000E+00  0.000E+00  1.03478E+03  2.279E+00  5.526E+01  6.148E-01  9.845E-01
   1   13    7     7     3    1.4685E+02  1.4372E+00   1.4541E+02  0.000E+00  0.000E+00  0.000E+00  1.02969E+03  2.271E+00  5.522E+01  5.585E-01  8.578E-01
   1   13    6     8     1    2.2287E+02  1.1313E+00   2.2174E+02  0.000E+00  0.000E+00  0.000E+00  1.02514E+03  3.265E+00  4.734E+01  4.824E-01  7.818E-01
   1   13    5     8     2    2.2174E+02  4.0340E-01   2.2133E+02  0.000E+00  0.000E+00  0.000E+00  1.01889E+03  3.260E+00  4.728E+01  4.818E-01  2.791E-01
   1   13    4     8     3    2.2133E+02 -1.1647E+00   2.2250E+02  0.000E+00  0.000E+00  0.000E+00  1.01264E+03  3.262E+00  4.731E+01  4.821E+00 -8.054E-02
   1   13    3     8     4    2.2250E+02 -2.4382E+00   2.2493E+02  0.000E+00  0.000E+00  0.000E+00  1.00640E+03  3.272E+00  4.745E+01  4.835E+00 -1.681E-01
   1   13    2     8     5    2.2493E+02 -1.8622E+00   2.2680E+02  0.000E+00  0.000E+00  0.000E+00  1.00016E+03  3.284E+00  4.762E+01  4.853E+00 -1.279E-01
   1   13    1     8     6    2.2680E+02 -9.8952E-01   2.2779E+02  0.000E+00  0.000E+00  0.000E+00  9.95167E+02  3.292E+00  4.773E+01  2.918E+00 -1.130E-01



 UBDSV3 SAVING "           GW ET" ON UNIT  61 AT TIME STEP 15, STRESS PERIOD   8
 UBDSV3 SAVING "    UZF RECHARGE" ON UNIT  61 AT TIME STEP 15, STRESS PERIOD   8
 UBDSV3 SAVING " SURFACE LEAKAGE" ON UNIT  61 AT TIME STEP 15, STRESS PERIOD   8
 UBDSV3 SAVING "       HORT+DUNN" ON UNIT  61 AT TIME STEP 15, STRESS PERIOD   8
 UBDSV3 SAVING "  STORAGE CHANGE" ON UNIT  61 AT TIME STEP 15, STRESS PERIOD   8


UNSATURATED ZONE PACKAGE VOLUMETRIC BUDGET FOR  TIME STEP    15 STRESS PERIOD    8
  ------------------------------------------------------------------------------



     CUMULATIVE VOLUMES      L**3       RATES FOR THIS TIME STEP      L**3/T
     ------------------                 ------------------------

           IN:                                      IN:
           ---                                      ---
        INFILTRATION =   118113173.4221          INFILTRATION =           7.7220

          OUT:                                     OUT:
          ----                                     ----
              UZF ET =    43097149.8341                UZF ET =          12.6049
        UZF RECHARGE =     7068319.0595          UZF RECHARGE =           0.1947

            IN - OUT =    67947704.5285              IN - OUT =          -5.0776

          STORAGE:                                 STORAGE:
          --------                                 --------
      STORAGE CHANGE =    67979295.8476        STORAGE CHANGE =          -5.0776

 PERCENT DISCREPANCY IS DIFFERENCE BETWEEN IN-OUT MINUS CHANGE IN STORAGE
 DIVIDED BY THE AVERAGE OF IN AND OUT TIMES 100

 PERCENT DISCREPANCY =          -0.01     PERCENT DISCREPANCY =           0.00






 

            AWU WELLS     PERIOD    8   STEP  15
 AWU WELL      1   LAYER   1   ROW     6   COL     4   RATE    -1.14574    
 AWU WELL      2   LAYER   1   ROW     6   COL     5   RATE    -1.14574    
 AWU WELL      3   LAYER   1   ROW     7   COL     4   RATE    -1.14574    
 AWU WELL      4   LAYER   1   ROW     7   COL     5   RATE    -1.14574    
 AWU WELL      5   LAYER   1   ROW     8   COL     4   RATE    -1.14574    
 AWU WELL      6   LAYER   1   ROW     8   COL     5   RATE    -1.14574    
 
 

        GW IRRIGATION     PERIOD    8   STEP  15
 AWU WELL      1   ROW     6   COL     4   RATE     1.14574    
 AWU WELL      2   ROW     6   COL     5   RATE     1.14574    
 AWU WELL      3   ROW     7   COL     4   RATE     1.14574    
 AWU WELL      4   ROW     7   COL     5   RATE     1.14574    
 AWU WELL      5   ROW     8   COL     4   RATE     1.14574    
 AWU WELL      6   ROW     8   COL     5   RATE     1.14574    
 
1
  VOLUMETRIC BUDGET FOR ENTIRE MODEL AT END OF TIME STEP   15, STRESS PERIOD   8
  ------------------------------------------------------------------------------

     CUMULATIVE VOLUMES      L**3       RATES FOR THIS TIME STEP      L**3/T
     ------------------                 ------------------------

           IN:                                      IN:
           ---                                      ---
               AWU WELLS =   103562952.0000                 AWU WELLS =           6.8745
      DIVERSION SEGMENTS =           0.0000        DIVERSION SEGMENTS =           0.0000
           GW IRRIGATION =           0.0000             GW IRRIGATION =           0.0000
           SW IRRIGATION =           0.0000             SW IRRIGATION =           0.0000
        SYSTEM LOSSES GW =           0.0000          SYSTEM LOSSES GW =           0.0000
        SYSTEM LOSSES SW =           0.0000          SYSTEM LOSSES SW =           0.0000

                TOTAL IN =   103562952.0000                  TOTAL IN =           6.8745

          OUT:                                     OUT:
          ----                                     ----
               AWU WELLS =           0.0000                 AWU WELLS =           0.0000
      DIVERSION SEGMENTS =           0.0000        DIVERSION SEGMENTS =           0.0000
           GW IRRIGATION =   103562952.0000             GW IRRIGATION =           6.8745
           SW IRRIGATION =           0.0000             SW IRRIGATION =           0.0000
        SYSTEM LOSSES GW =           0.0000          SYSTEM LOSSES GW =           0.0000
        SYSTEM LOSSES SW =           0.0000          SYSTEM LOSSES SW =           0.0000

               TOTAL OUT =   103562952.0000                 TOTAL OUT =           6.8745

                IN - OUT =           0.0000                  IN - OUT =           0.0000

     PERCENT DISCREPANCY =           0.00         PERCENT DISCREPANCY =           0.00



1
  VOLUMETRIC BUDGET FOR ENTIRE MODEL AT END OF TIME STEP   15, STRESS PERIOD   8
  ------------------------------------------------------------------------------

     CUMULATIVE VOLUMES      L**3       RATES FOR THIS TIME STEP      L**3/T
     ------------------                 ------------------------

           IN:                                      IN:
           ---                                      ---
             STORAGE     =   148423936.0000               STORAGE     =           9.7985
       CONSTANT HEAD     =           0.0000         CONSTANT HEAD     =           0.0000
     HEAD DEP BOUNDS     =     4905720.5000       HEAD DEP BOUNDS     =           0.2857
      STREAM LEAKAGE     =   221729232.0000        STREAM LEAKAGE     =          13.6682
        UZF RECHARGE     =     7068318.0000          UZF RECHARGE     =           0.1947
               GW ET     =           0.0000                 GW ET     =           0.0000
     SURFACE LEAKAGE     =           0.0000       SURFACE LEAKAGE     =           0.0000
           AWU WELLS     =           0.0000             AWU WELLS     =           0.0000

                TOTAL IN =   382127200.0000                  TOTAL IN =          23.9469

          OUT:                                     OUT:
          ----                                     ----
             STORAGE     =    84072456.0000               STORAGE     =           2.2239
       CONSTANT HEAD     =           0.0000         CONSTANT HEAD     =           0.0000
     HEAD DEP BOUNDS     =     5026311.0000       HEAD DEP BOUNDS     =           0.2852
      STREAM LEAKAGE     =   165869280.0000        STREAM LEAKAGE     =           6.4547
        UZF RECHARGE     =           0.0000          UZF RECHARGE     =           0.0000
               GW ET     =    23602570.0000                 GW ET     =           8.1060
     SURFACE LEAKAGE     =           0.0000       SURFACE LEAKAGE     =           0.0000
           AWU WELLS     =   103562952.0000             AWU WELLS     =           6.8745

               TOTAL OUT =   382133568.0000                 TOTAL OUT =          23.9443

                IN - OUT =       -6368.0000                  IN - OUT =       2.6588E-03

     PERCENT DISCREPANCY =          -0.00         PERCENT DISCREPANCY =           0.01






         TIME SUMMARY AT END OF TIME STEP   15 IN STRESS PERIOD    8
                    SECONDS     MINUTES      HOURS       DAYS        YEARS
                    -----------------------------------------------------------
   TIME STEP LENGTH  87600.      1460.0      24.333      1.0139     2.77588E-03
 STRESS PERIOD TIME 1.31400E+06  21900.      365.00      15.208     4.16381E-02
         TOTAL TIME 1.71684E+07 2.86140E+05  4769.0      198.71     0.54403    
1
 
 SOLVING FOR HEAD 
                                                   Max.-Head-Change                         Max.-Flux-Residual
  Residual-Control   Outer-Iter.   Inner-Iter.     Column Row Layer    Maximum-Head-Change  Column Row Layer    Maximum-Flux-Residual          L2-NORM 
          0                 1           2             5    6     1       0.2650526556E-01       5    6    1         0.1435003193E+01      0.3651567423E+01
          0                 2           2             5    6     1      -0.2578231675E-02       5    6    1        -0.1434997770E+00      0.3622592968E+00
          0                 3           2             5    6     1       0.1755681012E-03       5    6    1         0.1004499385E-01      0.2533052872E-01
          0                 4           1             5    6     1      -0.6986002426E-05       5    6    1        -0.4108407998E-03      0.1040461079E-02

    ------------------------------------------------
       NWT REQUIRED            4 OUTER ITERATIONS 
       AND A TOTAL OF          7 INNER ITERATIONS.
    ------------------------------------------------

 NO OUTPUT CONTROL FOR STRESS PERIOD    8   TIME STEP   16
 
 SOLVING FOR HEAD 
                                                   Max.-Head-Change                         Max.-Flux-Residual
  Residual-Control   Outer-Iter.   Inner-Iter.     Column Row Layer    Maximum-Head-Change  Column Row Layer    Maximum-Flux-Residual          L2-NORM 
          0                 1           2             5    6     1       0.2548325741E-01       5    6    1         0.1378589199E+01      0.3535981044E+01
          0                 2           2             5    6     1      -0.2478818787E-02       5    6    1        -0.1378584212E+00      0.3506793034E+00
          0                 3           2             5    6     1       0.1687984456E-03       5    6    1         0.9650098372E-02      0.2452435660E-01
          0                 4           1             5    6     1      -0.6716631933E-05       5    6    1        -0.3946895492E-03      0.1007833500E-02

    ------------------------------------------------
       NWT REQUIRED            4 OUTER ITERATIONS 
       AND A TOTAL OF          7 INNER ITERATIONS.
    ------------------------------------------------

 NO OUTPUT CONTROL FOR STRESS PERIOD    8   TIME STEP   17
 
 SOLVING FOR HEAD 
                                                   Max.-Head-Change                         Max.-Flux-Residual
  Residual-Control   Outer-Iter.   Inner-Iter.     Column Row Layer    Maximum-Head-Change  Column Row Layer    Maximum-Flux-Residual          L2-NORM 
          0                 1           2             5   13     1      -0.1060388347E-01       5   13    1        -0.5729529537E+00      0.1647212244E+01
          0                 2           2             5   13     1       0.1030948669E-02       5   13    1         0.5727211902E-01      0.1585007702E+00
          0                 3           1             5   13     1      -0.7015712054E-04       5   13    1        -0.4006936862E-02      0.1105933009E-01

    ------------------------------------------------
       NWT REQUIRED            3 OUTER ITERATIONS 
       AND A TOTAL OF          5 INNER ITERATIONS.
    ------------------------------------------------

 NO OUTPUT CONTROL FOR STRESS PERIOD    8   TIME STEP   18
 
 SOLVING FOR HEAD 
                                                   Max.-Head-Change                         Max.-Flux-Residual
  Residual-Control   Outer-Iter.   Inner-Iter.     Column Row Layer    Maximum-Head-Change  Column Row Layer    Maximum-Flux-Residual          L2-NORM 
          0                 1           2             5    6     1       0.2418465369E-01       5    6    1         0.1306893370E+01      0.3383637521E+01
          0                 2           2             5    6     1      -0.2352500859E-02       5    6    1        -0.1306888931E+00      0.3354395741E+00
          0                 3           2             5    6     1       0.1601966550E-03       5    6    1         0.9148230682E-02      0.2346636552E-01
          0                 4           1             5    6     1      -0.6374359189E-05       5    6    1        -0.3741631442E-03      0.9655098706E-03

    ------------------------------------------------
       NWT REQUIRED            4 OUTER ITERATIONS 
       AND A TOTAL OF          7 INNER ITERATIONS.
    ------------------------------------------------

 NO OUTPUT CONTROL FOR STRESS PERIOD    8   TIME STEP   19
 
 SOLVING FOR HEAD 
                                                   Max.-Head-Change                         Max.-Flux-Residual
  Residual-Control   Outer-Iter.   Inner-Iter.     Column Row Layer    Maximum-Head-Change  Column Row Layer    Maximum-Flux-Residual          L2-NORM 
          0                 1           2             5    6     1       0.2329589386E-01       5    6    1         0.1257910696E+01      0.3284129455E+01
          0                 2           2             5    6     1      -0.2266049277E-02       5    6    1        -0.1257906609E+00      0.3254501640E+00
          0                 3           2             5    6     1       0.1543096170E-03       5    6    1         0.8805353948E-02      0.2277044541E-01
          0                 4           1             5    6     1      -0.6140108600E-05       5    6    1        -0.3601394526E-03      0.9374356711E-03

    ------------------------------------------------
       NWT REQUIRED            4 OUTER ITERATIONS 
       AND A TOTAL OF          7 INNER ITERATIONS.
    ------------------------------------------------

 NO OUTPUT CONTROL FOR STRESS PERIOD    8   TIME STEP   20
 
 SOLVING FOR HEAD 
                                                   Max.-Head-Change                         Max.-Flux-Residual
  Residual-Control   Outer-Iter.   Inner-Iter.     Column Row Layer    Maximum-Head-Change  Column Row Layer    Maximum-Flux-Residual          L2-NORM 
          0                 1           2             5   13     1      -0.9450553864E-02       5   13    1        -0.5104589102E+00      0.1442237057E+01
          0                 2           2             5   13     1       0.9188040953E-03       5   13    1         0.5102422179E-01      0.1374470545E+00
          0                 3           1             5   13     1      -0.6252195997E-04       5   13    1        -0.3569592428E-02      0.9604951799E-02

    ------------------------------------------------
       NWT REQUIRED            3 OUTER ITERATIONS 
       AND A TOTAL OF          5 INNER ITERATIONS.
    ------------------------------------------------

 NO OUTPUT CONTROL FOR STRESS PERIOD    8   TIME STEP   21
 
 SOLVING FOR HEAD 
                                                   Max.-Head-Change                         Max.-Flux-Residual
  Residual-Control   Outer-Iter.   Inner-Iter.     Column Row Layer    Maximum-Head-Change  Column Row Layer    Maximum-Flux-Residual          L2-NORM 
          0                 1           2             5    6     1       0.2223354691E-01       5    6    1         0.1199382993E+01      0.3158688253E+01
          0                 2           2             5    6     1      -0.2162712515E-02       5    6    1        -0.1199379333E+00      0.3128792523E+00
          0                 3           2             5    6     1       0.1472727597E-03       5    6    1         0.8395662421E-02      0.2189623481E-01
          0                 4           1             5    6     1      -0.5860106072E-05       5    6    1        -0.3433830518E-03      0.9020713468E-03

    ------------------------------------------------
       NWT REQUIRED            4 OUTER ITERATIONS 
       AND A TOTAL OF          7 INNER ITERATIONS.
    ------------------------------------------------

 NO OUTPUT CONTROL FOR STRESS PERIOD    8   TIME STEP   22
 
 SOLVING FOR HEAD 
                                                   Max.-Head-Change                         Max.-Flux-Residual
  Residual-Control   Outer-Iter.   Inner-Iter.     Column Row Layer    Maximum-Head-Change  Column Row Layer    Maximum-Flux-Residual          L2-NORM 
          0                 1           2             5    7     1       0.2157643637E-01       5    6    1         0.1156405288E+01      0.3071895257E+01
          0                 2           2             5    7     1      -0.2098797047E-02       5    6    1        -0.1156401914E+00      0.3041583042E+00
          0                 3           2             5    7     1       0.1429203167E-03       5    6    1         0.8094820099E-02      0.2128832176E-01
          0                 4           1             5    7     1      -0.5686935280E-05       5    6    1        -0.3310785760E-03      0.8777512255E-03

    ------------------------------------------------
       NWT REQUIRED            4 OUTER ITERATIONS 
       AND A TOTAL OF          7 INNER ITERATIONS.
    ------------------------------------------------

 NO OUTPUT CONTROL FOR STRESS PERIOD    8   TIME STEP   23
 
 SOLVING FOR HEAD 
                                                   Max.-Head-Change                         Max.-Flux-Residual
  Residual-Control   Outer-Iter.   Inner-Iter.     Column Row Layer    Maximum-Head-Change  Column Row Layer    Maximum-Flux-Residual          L2-NORM 
          0                 1           2             5   13     1      -0.8434073055E-02       5   13    1        -0.4553296574E+00      0.1290283915E+01
          0                 2           2             5   13     1       0.8199721832E-03       5   13    1         0.4551303414E-01      0.1217385361E+00
          0                 3           1             5   13     1      -0.5579817634E-04       5   13    1        -0.3184082168E-02      0.8520185625E-02

    ------------------------------------------------
       NWT REQUIRED            3 OUTER ITERATIONS 
       AND A TOTAL OF          5 INNER ITERATIONS.
    ------------------------------------------------

 NO OUTPUT CONTROL FOR STRESS PERIOD    8   TIME STEP   24
 
 SOLVING FOR HEAD 
                                                   Max.-Head-Change                         Max.-Flux-Residual
  Residual-Control   Outer-Iter.   Inner-Iter.     Column Row Layer    Maximum-Head-Change  Column Row Layer    Maximum-Flux-Residual          L2-NORM 
          0                 1           2             5    7     1       0.2103827518E-01       5    7    1         0.1116288838E+01      0.2967772819E+01
          0                 2           2             5    7     1      -0.2046449319E-02       5    7    1        -0.1116287914E+00      0.2937160477E+00
          0                 3           2             5    7     1       0.1393556234E-03       5    7    1         0.7814019651E-02      0.2056156743E-01
          0                 4           1             5    7     1      -0.5545092781E-05       5    7    1        -0.3195938348E-03      0.8484999763E-03

    ------------------------------------------------
       NWT REQUIRED            4 OUTER ITERATIONS 
       AND A TOTAL OF          7 INNER ITERATIONS.
    ------------------------------------------------

 NO OUTPUT CONTROL FOR STRESS PERIOD    8   TIME STEP   25
 
 SOLVING FOR HEAD 
                                                   Max.-Head-Change                         Max.-Flux-Residual
  Residual-Control   Outer-Iter.   Inner-Iter.     Column Row Layer    Maximum-Head-Change  Column Row Layer    Maximum-Flux-Residual          L2-NORM 
          0                 1           2             5    7     1       0.2062269104E-01       5    7    1         0.1094245621E+01      0.2891154637E+01
          0                 2           2             5    7     1      -0.2006024818E-02       5    7    1        -0.1094245054E+00      0.2860041435E+00
          0                 3           2             5    7     1       0.1366028596E-03       5    7    1         0.7659719206E-02      0.2002340133E-01
          0                 4           1             5    7     1      -0.5435558079E-05       5    7    1        -0.3132829506E-03      0.8265672166E-03

    ------------------------------------------------
       NWT REQUIRED            4 OUTER ITERATIONS 
       AND A TOTAL OF          7 INNER ITERATIONS.
    ------------------------------------------------

 NO OUTPUT CONTROL FOR STRESS PERIOD    8   TIME STEP   26
 
 SOLVING FOR HEAD 
                                                   Max.-Head-Change                         Max.-Flux-Residual
  Residual-Control   Outer-Iter.   Inner-Iter.     Column Row Layer    Maximum-Head-Change  Column Row Layer    Maximum-Flux-Residual          L2-NORM 
          0                 1           2             5   13     1      -0.7539935338E-02       5   13    1        -0.4068074390E+00      0.1184667893E+01
          0                 2           2             5   13     1       0.7330288526E-03       5   13    1         0.4066203446E-01      0.1107352815E+00
          0                 3           1             5   13     1      -0.4987928454E-04       5   13    1        -0.2844563273E-02      0.7759138098E-02

    ------------------------------------------------
       NWT REQUIRED            3 OUTER ITERATIONS 
       AND A TOTAL OF          5 INNER ITERATIONS.
    ------------------------------------------------

 NO OUTPUT CONTROL FOR STRESS PERIOD    8   TIME STEP   27
 
 SOLVING FOR HEAD 
                                                   Max.-Head-Change                         Max.-Flux-Residual
  Residual-Control   Outer-Iter.   Inner-Iter.     Column Row Layer    Maximum-Head-Change  Column Row Layer    Maximum-Flux-Residual          L2-NORM 
          0                 1           2             4    7     1       0.2015845692E-01       5    7    1         0.1067791116E+01      0.2803982699E+01
          0                 2           2             4    7     1      -0.1960868783E-02       5    7    1        -0.1067790861E+00      0.2772456144E+00
          0                 3           2             4    7     1       0.1335278885E-03       5    7    1         0.7474539507E-02      0.1941349709E-01
          0                 4           1             4    7     1      -0.5313199314E-05       5    7    1        -0.3057090917E-03      0.8020230222E-03

    ------------------------------------------------
       NWT REQUIRED            4 OUTER ITERATIONS 
       AND A TOTAL OF          7 INNER ITERATIONS.
    ------------------------------------------------

 NO OUTPUT CONTROL FOR STRESS PERIOD    8   TIME STEP   28
 
 SOLVING FOR HEAD 
                                                   Max.-Head-Change                         Max.-Flux-Residual
  Residual-Control   Outer-Iter.   Inner-Iter.     Column Row Layer    Maximum-Head-Change  Column Row Layer    Maximum-Flux-Residual          L2-NORM 
          0                 1           2             4    7     1       0.2001099276E-01       4    7    1         0.1048213491E+01      0.2735612999E+01
          0                 2           2             4    7     1      -0.1946525056E-02       4    7    1        -0.1048214168E+00      0.2703533253E+00
          0                 3           2             4    7     1       0.1325511291E-03       4    7    1         0.7337501709E-02      0.1893226240E-01
          0                 4           1             4    7     1      -0.5274333387E-05       4    7    1        -0.3001042398E-03      0.7825717930E-03

    ------------------------------------------------
       NWT REQUIRED            4 OUTER ITERATIONS 
       AND A TOTAL OF          7 INNER ITERATIONS.
    ------------------------------------------------

 NO OUTPUT CONTROL FOR STRESS PERIOD    8   TIME STEP   29
 
 SOLVING FOR HEAD 
                                                   Max.-Head-Change                         Max.-Flux-Residual
  Residual-Control   Outer-Iter.   Inner-Iter.     Column Row Layer    Maximum-Head-Change  Column Row Layer    Maximum-Flux-Residual          L2-NORM 
          0                 1           2             3    7     1      -0.6908582040E-02       5   13    1        -0.3641679821E+00      0.1117400573E+01
          0                 2           2             3    7     1       0.6720171137E-03       5   13    1         0.3639943815E-01      0.1037044631E+00
          0                 3           1             3    7     1      -0.4576003109E-04       5   13    1        -0.2546385520E-02      0.7274014196E-02

    ------------------------------------------------
       NWT REQUIRED            3 OUTER ITERATIONS 
       AND A TOTAL OF          5 INNER ITERATIONS.
    ------------------------------------------------

 NO OUTPUT CONTROL FOR STRESS PERIOD    8   TIME STEP   30



 STREAM LISTING     PERIOD      8   STEP       30

 LAYER ROW COL. STREAM  RCH.  FLOW INTO     FLOW TO   FLOW OUT OF   OVRLND.     DIRECT     STREAM       STREAM     STREAM     STREAM   STREAMBED  STREAMBED
                SEG.NO.  NO.  STRM. RCH.    AQUIFER    STRM. RCH.    RUNOFF     PRECIP       ET          HEAD       DEPTH      WIDTH   CONDCTNC.   GRADIENT

   1    1    1     1     1    7.5000E+01  4.2232E-01   7.4578E+01  0.000E+00  0.000E+00  0.000E+00  1.09475E+03  1.698E+00  1.998E+01  8.990E-02  1.566E+00
   1    2    2     1     2    7.4578E+01  6.5422E-01   7.3923E+01  0.000E+00  0.000E+00  0.000E+00  1.08975E+03  1.692E+00  1.992E+01  1.394E-01  1.564E+00
   1    3    3     1     3    7.3923E+01  5.5813E-01   7.3365E+01  0.000E+00  0.000E+00  0.000E+00  1.08410E+03  1.685E+00  1.985E+01  1.191E-01  1.562E+00
   1    3    4     1     4    7.3365E+01  5.1411E-01   7.2851E+01  0.000E+00  0.000E+00  0.000E+00  1.07909E+03  1.679E+00  1.980E+01  1.099E-01  1.560E+00
   1    4    5     2     1    7.0851E+01  4.0967E-01   7.0442E+01  0.000E+00  0.000E+00  0.000E+00  1.07419E+03  2.252E+00  1.200E+01  7.800E-02  1.751E+00
   1    5    6     2     2    7.0442E+01  3.1471E-01   7.0127E+01  0.000E+00  0.000E+00  0.000E+00  1.06875E+03  2.245E+00  1.200E+01  6.000E-02  1.748E+00
   1    6    6     2     3    7.0127E+01  3.1435E-01   6.9812E+01  0.000E+00  0.000E+00  0.000E+00  1.06403E+03  2.239E+00  1.200E+01  6.000E-02  1.746E+00
   1    7    6     2     4    6.9812E+01  3.1399E-01   6.9498E+01  0.000E+00  0.000E+00  0.000E+00  1.05931E+03  2.233E+00  1.200E+01  6.000E-02  1.744E+00
   1    8    6     2     5    6.9498E+01  3.1363E-01   6.9185E+01  0.000E+00  0.000E+00  0.000E+00  1.05459E+03  2.227E+00  1.200E+01  6.000E-02  1.742E+00
   1    3    5     3     1    2.0000E+00  2.8252E-01   1.7175E+00  0.000E+00  0.000E+00  0.000E+00  1.07555E+03  1.909E+00  9.636E+00  7.227E-02  1.955E+00
   1    3    6     3     2    1.7175E+00  2.4905E-01   1.4684E+00  0.000E+00  0.000E+00  0.000E+00  1.07264E+03  1.727E+00  8.909E+00  6.682E-02  1.864E+00
   1    3    7     3     3    1.4684E+00  1.9718E-01   1.2712E+00  0.000E+00  0.000E+00  0.000E+00  1.06987E+03  1.555E+00  8.218E+00  5.547E-02  1.777E+00
   1    4    8     3     4    1.2712E+00  2.2567E-01   1.0456E+00  0.000E+00  0.000E+00  0.000E+00  1.06682E+03  1.364E+00  7.455E+00  6.709E-02  1.682E+00
   1    5    8     3     5    1.0456E+00  1.5790E-01   8.8768E-01  0.000E+00  0.000E+00  0.000E+00  1.06362E+03  1.164E+00  6.655E+00  4.991E-02  1.582E+00
   1    6    8     3     6    8.8768E-01  5.5980E-02   8.3170E-01  0.000E+00  0.000E+00  0.000E+00  1.06158E+03  1.036E+00  6.145E+00  1.844E-02  1.518E+00
   1    5   10     4     1    1.0000E+01  9.0919E-02   9.9091E+00  0.000E+00  0.000E+00  0.000E+00  1.07836E+03  6.368E-01  1.000E+01  2.500E-02  1.212E+00
   1    5    9     4     2    9.9091E+00  1.8158E-01   9.7275E+00  0.000E+00  0.000E+00  0.000E+00  1.07154E+03  6.315E-01  1.000E+01  5.000E-02  1.211E+00
   1    6    8     4     3    9.7275E+00  1.2689E-01   9.6006E+00  0.000E+00  0.000E+00  0.000E+00  1.06381E+03  6.256E-01  1.000E+01  3.500E-02  1.209E+00
   1    6    8     5     1    1.0432E+01  2.2686E-01   1.0205E+01  0.000E+00  0.000E+00  0.000E+00  1.05868E+03  6.790E-01  1.542E+01  6.166E-02  1.226E+00
   1    7    7     5     2    1.0205E+01  2.7894E-01   9.9265E+00  0.000E+00  0.000E+00  0.000E+00  1.05417E+03  6.732E-01  1.519E+01  7.594E-02  1.224E+00
   1    8    7     5     3    9.9265E+00  1.9221E-01   9.7343E+00  0.000E+00  0.000E+00  0.000E+00  1.04992E+03  6.676E-01  1.497E+01  5.241E-02  1.223E+00
   1    8    6     5     4    9.7343E+00  1.3577E-01   9.5985E+00  0.000E+00  0.000E+00  0.000E+00  1.04691E+03  6.637E-01  1.482E+01  3.706E-02  1.221E+00
   1    9    6     6     1    7.8783E+01  3.2569E-01   7.8458E+01  0.000E+00  0.000E+00  0.000E+00  1.04516E+03  2.428E+00  1.200E+01  6.000E-02  1.809E+00
   1   10    7     6     2    7.8458E+01  3.2533E-01   7.8132E+01  0.000E+00  0.000E+00  0.000E+00  1.04060E+03  2.422E+00  1.200E+01  6.000E-02  1.807E+00
   1   11    7     6     3    7.8132E+01  3.2497E-01   7.7807E+01  0.000E+00  0.000E+00  0.000E+00  1.03605E+03  2.416E+00  1.200E+01  6.000E-02  1.805E+00
   1   12    7     6     4    7.7807E+01  3.2461E-01   7.7483E+01  0.000E+00  0.000E+00  0.000E+00  1.03150E+03  2.410E+00  1.200E+01  6.000E-02  1.803E+00
   1   13    7     6     5    7.7483E+01  2.9493E-02   7.7453E+01  0.000E+00  0.000E+00  0.000E+00  1.02832E+03  2.407E+00  1.200E+01  2.400E-02  4.096E-01
   1   14    9     7     1    1.5000E+02  1.3342E+00   1.4867E+02  0.000E+00  0.000E+00  0.000E+00  1.03987E+03  2.288E+00  5.529E+01  5.593E-01  7.952E-01
   1   13    8     7     2    1.4867E+02  1.8185E+00   1.4685E+02  0.000E+00  0.000E+00  0.000E+00  1.03478E+03  2.279E+00  5.526E+01  6.148E-01  9.860E-01
   1   13    7     7     3    1.4685E+02  1.4536E+00   1.4539E+02  0.000E+00  0.000E+00  0.000E+00  1.02969E+03  2.271E+00  5.522E+01  5.585E-01  8.676E-01
   1   13    6     8     1    2.2285E+02  1.1653E+00   2.2168E+02  0.000E+00  0.000E+00  0.000E+00  1.02514E+03  3.264E+00  4.733E+01  4.823E-01  8.053E-01
   1   13    5     8     2    2.2168E+02  4.6152E-01   2.2122E+02  0.000E+00  0.000E+00  0.000E+00  1.01888E+03  3.260E+00  4.727E+01  4.817E-01  3.194E-01
   1   13    4     8     3    2.2122E+02 -9.3104E-01   2.2215E+02  0.000E+00  0.000E+00  0.000E+00  1.01264E+03  3.261E+00  4.729E+01  4.819E+00 -6.440E-02
   1   13    3     8     4    2.2215E+02 -2.2401E+00   2.2439E+02  0.000E+00  0.000E+00  0.000E+00  1.00639E+03  3.270E+00  4.741E+01  4.832E+00 -1.545E-01
   1   13    2     8     5    2.2439E+02 -1.6965E+00   2.2609E+02  0.000E+00  0.000E+00  0.000E+00  1.00016E+03  3.281E+00  4.757E+01  4.848E+00 -1.167E-01
   1   13    1     8     6    2.2609E+02 -7.4655E-01   2.2683E+02  0.000E+00  0.000E+00  0.000E+00  9.95162E+02  3.287E+00  4.767E+01  2.914E+00 -8.538E-02





UNSATURATED ZONE PACKAGE VOLUMETRIC BUDGET FOR  TIME STEP    30 STRESS PERIOD    8
  ------------------------------------------------------------------------------



     CUMULATIVE VOLUMES      L**3       RATES FOR THIS TIME STEP      L**3/T
     ------------------                 ------------------------

           IN:                                      IN:
           ---                                      ---
        INFILTRATION =   122146347.5002          INFILTRATION =           7.5000

          OUT:                                     OUT:
          ----                                     ----
              UZF ET =    59660010.7639                UZF ET =          12.6049
        UZF RECHARGE =     7310436.9049          UZF RECHARGE =           0.1767

            IN - OUT =    55175899.8314              IN - OUT =          -5.2816

          STORAGE:                                 STORAGE:
          --------                                 --------
      STORAGE CHANGE =    55209553.4856        STORAGE CHANGE =          -5.2816

 PERCENT DISCREPANCY IS DIFFERENCE BETWEEN IN-OUT MINUS CHANGE IN STORAGE
 DIVIDED BY THE AVERAGE OF IN AND OUT TIMES 100

 PERCENT DISCREPANCY =          -0.01     PERCENT DISCREPANCY =           0.00






1
  VOLUMETRIC BUDGET FOR ENTIRE MODEL AT END OF TIME STEP   30, STRESS PERIOD   8
  ------------------------------------------------------------------------------

     CUMULATIVE VOLUMES      L**3       RATES FOR THIS TIME STEP      L**3/T
     ------------------                 ------------------------

           IN:                                      IN:
           ---                                      ---
               AWU WELLS =   106482512.0000                 AWU WELLS =           6.6525
      DIVERSION SEGMENTS =           0.0000        DIVERSION SEGMENTS =           0.0000
           GW IRRIGATION =           0.0000             GW IRRIGATION =           0.0000
           SW IRRIGATION =           0.0000             SW IRRIGATION =           0.0000
        SYSTEM LOSSES GW =           0.0000          SYSTEM LOSSES GW =           0.0000
        SYSTEM LOSSES SW =           0.0000          SYSTEM LOSSES SW =           0.0000

                TOTAL IN =   106482512.0000                  TOTAL IN =           6.6525

          OUT:                                     OUT:
          ----                                     ----
               AWU WELLS =           0.0000                 AWU WELLS =           0.0000
      DIVERSION SEGMENTS =           0.0000        DIVERSION SEGMENTS =           0.0000
           GW IRRIGATION =   106482512.0000             GW IRRIGATION =           6.6525
           SW IRRIGATION =           0.0000             SW IRRIGATION =           0.0000
        SYSTEM LOSSES GW =           0.0000          SYSTEM LOSSES GW =           0.0000
        SYSTEM LOSSES SW =           0.0000          SYSTEM LOSSES SW =           0.0000

               TOTAL OUT =   106482512.0000                 TOTAL OUT =           6.6525

                IN - OUT =           0.0000                  IN - OUT =           0.0000

     PERCENT DISCREPANCY =           0.00         PERCENT DISCREPANCY =           0.00



1
  VOLUMETRIC BUDGET FOR ENTIRE MODEL AT END OF TIME STEP   30, STRESS PERIOD   8
  ------------------------------------------------------------------------------

     CUMULATIVE VOLUMES      L**3       RATES FOR THIS TIME STEP      L**3/T
     ------------------                 ------------------------

           IN:                                      IN:
           ---                                      ---
             STORAGE     =   158918576.0000               STORAGE     =           7.4026
       CONSTANT HEAD     =           0.0000         CONSTANT HEAD     =           0.0000
     HEAD DEP BOUNDS     =     5281073.5000       HEAD DEP BOUNDS     =           0.2856
      STREAM LEAKAGE     =   239772736.0000        STREAM LEAKAGE     =          13.7798
        UZF RECHARGE     =     7310437.0000          UZF RECHARGE     =           0.1767
               GW ET     =           0.0000                 GW ET     =           0.0000
     SURFACE LEAKAGE     =           0.0000       SURFACE LEAKAGE     =           0.0000
           AWU WELLS     =           0.0000             AWU WELLS     =           0.0000

                TOTAL IN =   411282816.0000                  TOTAL IN =          21.6447

          OUT:                                     OUT:
          ----                                     ----
             STORAGE     =    91626792.0000               STORAGE     =           1.1632
       CONSTANT HEAD     =           0.0000         CONSTANT HEAD     =           0.0000
     HEAD DEP BOUNDS     =     5398452.5000       HEAD DEP BOUNDS     =           0.2819
      STREAM LEAKAGE     =   173663744.0000        STREAM LEAKAGE     =           5.6143
        UZF RECHARGE     =           0.0000          UZF RECHARGE     =           0.0000
               GW ET     =    34116660.0000                 GW ET     =           7.9306
     SURFACE LEAKAGE     =           0.0000       SURFACE LEAKAGE     =           0.0000
           AWU WELLS     =   106482512.0000             AWU WELLS     =           6.6525

               TOTAL OUT =   411288192.0000                 TOTAL OUT =          21.6424

                IN - OUT =       -5376.0000                  IN - OUT =       2.2259E-03

     PERCENT DISCREPANCY =          -0.00         PERCENT DISCREPANCY =           0.01






         TIME SUMMARY AT END OF TIME STEP   30 IN STRESS PERIOD    8
                    SECONDS     MINUTES      HOURS       DAYS        YEARS
                    -----------------------------------------------------------
   TIME STEP LENGTH  87600.      1460.0      24.333      1.0139     2.77588E-03
 STRESS PERIOD TIME 2.62800E+06  43800.      730.00      30.417     8.32763E-02
         TOTAL TIME 1.84824E+07 3.08040E+05  5134.0      213.92     0.58567    
1
1
                            STRESS PERIOD NO.    9, LENGTH =   2628000.    
                            -----------------------------------------------

                              NUMBER OF TIME STEPS =    30

                               MULTIPLIER FOR DELT =     1.000

                            INITIAL TIME STEP SIZE =   87600.00    

 REUSING NON-PARAMETER GHB CELLS FROM LAST STRESS PERIOD

      2 GHB CELLS

 REUSING STREAM SEGMENT DATA FROM LAST STRESS PERIOD



            AREAL INFILTRATION RATE
 READING ON UNIT   19 WITH FORMAT: (10F4.0)            

            1           2           3           4           5           6           7           8           9          10
 ........................................................................................................................
   1   1.0000E-10  2.0000E-10   0.000       0.000       0.000       0.000       0.000       0.000       0.000       0.000    
   2   2.0000E-10  1.0000E-10  2.0000E-10   0.000       0.000      8.0000E-10  8.0000E-10  5.0000E-10   0.000       0.000    
   3    0.000      5.0000E-10  1.0000E-10  1.0000E-10  8.0000E-10  8.0000E-10  5.0000E-10  5.0000E-10   0.000       0.000    
   4   8.0000E-10  5.0000E-10  1.0000E-10  1.0000E-10  1.0000E-10  1.0000E-10  1.0000E-10  1.0000E-10  2.0000E-10   0.000    
   5   8.0000E-10  5.0000E-10  1.0000E-10  1.0000E-10  1.0000E-10  1.0000E-10  1.0000E-10  1.0000E-10  1.0000E-10  1.0000E-10
   6   8.0000E-10  5.0000E-10  5.0000E-10  2.0000E-10  2.0000E-10  1.0000E-10  1.0000E-10  1.0000E-10  1.0000E-10  5.0000E-10
   7   8.0000E-10  5.0000E-10  5.0000E-10  2.0000E-10  2.0000E-10  1.0000E-10  1.0000E-10  2.0000E-10  2.0000E-10   0.000    
   8    0.000      5.0000E-10  5.0000E-10  2.0000E-10  2.0000E-10  1.0000E-10  1.0000E-10  2.0000E-10  5.0000E-10   0.000    
   9    0.000      5.0000E-10  5.0000E-10  2.0000E-10  2.0000E-10  1.0000E-10  1.0000E-10  2.0000E-10  5.0000E-10   0.000    
  10    0.000      5.0000E-10  5.0000E-10  2.0000E-10  2.0000E-10  1.0000E-10  1.0000E-10  2.0000E-10  5.0000E-10  8.0000E-10
  11    0.000      1.0000E-10  1.0000E-10  1.0000E-10  1.0000E-10  1.0000E-10  1.0000E-10  2.0000E-10  5.0000E-10   0.000    
  12   1.0000E-10  1.0000E-10  1.0000E-10  1.0000E-10  1.0000E-10  1.0000E-10  1.0000E-10  1.0000E-10  2.0000E-10   0.000    
  13   1.0000E-10  1.0000E-10  2.0000E-10  2.0000E-10  2.0000E-10  2.0000E-10  2.0000E-10  1.0000E-10  1.0000E-10   0.000    
  14    0.000      2.0000E-10  5.0000E-10  5.0000E-10  5.0000E-10  5.0000E-10  5.0000E-10  2.0000E-10  1.0000E-10   0.000    
  15    0.000       0.000      8.0000E-10  8.0000E-10  8.0000E-10  8.0000E-10   0.000       0.000       0.000       0.000    

                  ET RATE =  6.500000E-08

 USING ET EXTINCTION DEPTH FROM PREVIOUS STRESS PERIOD. CURRENT PERIOD IS:       9

 USING EXTINCTION WATER CONTENT FROM PREVIOUS STRESS PERIOD. CURRENT PERIOD IS:       9

 PROCESSING AWU STRESS PERIOD DATA

 READING AWU STRESS PERIOD DATA

 READING IRRIGATION WELL

 END PROCESSING AWU STRESS PERIOD DATA OPTIONS
 
 SOLVING FOR HEAD 
                                                   Max.-Head-Change                         Max.-Flux-Residual
  Residual-Control   Outer-Iter.   Inner-Iter.     Column Row Layer    Maximum-Head-Change  Column Row Layer    Maximum-Flux-Residual          L2-NORM 
          0                 1           2             4    7     1       0.1980032404E-01       4    7    1         0.1037699963E+01      0.2627820570E+01
          0                 2           2             4    7     1      -0.1926882756E-02       4    7    1        -0.1038157308E+00      0.2605623954E+00
          0                 3           2             4    7     1       0.1303870964E-03       4    7    1         0.7221468082E-02      0.1815011514E-01
          0                 4           1             4    7     1      -0.5992272787E-05       4    7    1        -0.3409937153E-03      0.8555330718E-03

    ------------------------------------------------
       NWT REQUIRED            4 OUTER ITERATIONS 
       AND A TOTAL OF          7 INNER ITERATIONS.
    ------------------------------------------------

 NO OUTPUT CONTROL FOR STRESS PERIOD    9   TIME STEP    1
 
 SOLVING FOR HEAD 
                                                   Max.-Head-Change                         Max.-Flux-Residual
  Residual-Control   Outer-Iter.   Inner-Iter.     Column Row Layer    Maximum-Head-Change  Column Row Layer    Maximum-Flux-Residual          L2-NORM 
          0                 1           2             4    7     1      -0.1717467562E+00       5    8    1        -0.9075305613E+01      0.2213243224E+02
          0                 2           2             4    7     1       0.1670610493E-01       5    8    1         0.9074655381E+00      0.2212914628E+01
          0                 3           2             4    7     1      -0.1137625486E-02       5    8    1        -0.6352323025E-01      0.1549059554E+00
          0                 4           1             4    7     1       0.4526717442E-04       5    8    1         0.2598100896E-02      0.6336672123E-02

    ------------------------------------------------
       NWT REQUIRED            4 OUTER ITERATIONS 
       AND A TOTAL OF          7 INNER ITERATIONS.
    ------------------------------------------------

 NO OUTPUT CONTROL FOR STRESS PERIOD    9   TIME STEP    2
 
 SOLVING FOR HEAD 
                                                   Max.-Head-Change                         Max.-Flux-Residual
  Residual-Control   Outer-Iter.   Inner-Iter.     Column Row Layer    Maximum-Head-Change  Column Row Layer    Maximum-Flux-Residual          L2-NORM 
          0                 1           2             4    7     1      -0.1709053956E+00       4    7    1        -0.8930634072E+01      0.2173799028E+02
          0                 2           2             4    7     1       0.1662423517E-01       4    7    1         0.8930509865E+00      0.2173471981E+01
          0                 3           2             4    7     1      -0.1132050736E-02       4    7    1        -0.6251371360E-01      0.1521450526E+00
          0                 4           1             4    7     1       0.4504534887E-04       4    7    1         0.2556813904E-02      0.6223765140E-02

    ------------------------------------------------
       NWT REQUIRED            4 OUTER ITERATIONS 
       AND A TOTAL OF          7 INNER ITERATIONS.
    ------------------------------------------------

 NO OUTPUT CONTROL FOR STRESS PERIOD    9   TIME STEP    3
 
 SOLVING FOR HEAD 
                                                   Max.-Head-Change                         Max.-Flux-Residual
  Residual-Control   Outer-Iter.   Inner-Iter.     Column Row Layer    Maximum-Head-Change  Column Row Layer    Maximum-Flux-Residual          L2-NORM 
          0                 1           2             4    7     1      -0.1699928473E+00       4    7    1        -0.8886868175E+01      0.2136409586E+02
          0                 2           2             4    7     1       0.1653544375E-01       4    7    1         0.8886726390E+00      0.2136082714E+01
          0                 3           2             4    7     1      -0.1126004617E-02       4    7    1        -0.6220724578E-01      0.1495279036E+00
          0                 4           1             4    7     1       0.4480476706E-04       4    7    1         0.2544279271E-02      0.6116734006E-02

    ------------------------------------------------
       NWT REQUIRED            4 OUTER ITERATIONS 
       AND A TOTAL OF          7 INNER ITERATIONS.
    ------------------------------------------------

 NO OUTPUT CONTROL FOR STRESS PERIOD    9   TIME STEP    4
 
 SOLVING FOR HEAD 
                                                   Max.-Head-Change                         Max.-Flux-Residual
  Residual-Control   Outer-Iter.   Inner-Iter.     Column Row Layer    Maximum-Head-Change  Column Row Layer    Maximum-Flux-Residual          L2-NORM 
          0                 1           2             5    8     1       0.3058812555E-01       5    8    1         0.1661611086E+01      0.3943450539E+01
          0                 2           2             5    8     1      -0.2976254201E-02       5    8    1        -0.1662091721E+00      0.3930354038E+00
          0                 3           2             5    8     1       0.2018652217E-03       5    8    1         0.1158898881E-01      0.2741973210E-01
          0                 4           1             5    8     1      -0.8816856968E-05       5    8    1        -0.5196256650E-03      0.1228578096E-02

    ------------------------------------------------
       NWT REQUIRED            4 OUTER ITERATIONS 
       AND A TOTAL OF          7 INNER ITERATIONS.
    ------------------------------------------------

 NO OUTPUT CONTROL FOR STRESS PERIOD    9   TIME STEP    5
 
 SOLVING FOR HEAD 
                                                   Max.-Head-Change                         Max.-Flux-Residual
  Residual-Control   Outer-Iter.   Inner-Iter.     Column Row Layer    Maximum-Head-Change  Column Row Layer    Maximum-Flux-Residual          L2-NORM 
          0                 1           2             5    8     1       0.2931180070E-01       5    8    1         0.1590776098E+01      0.3819271812E+01
          0                 2           2             5    8     1      -0.2852099018E-02       5    8    1        -0.1591254227E+00      0.3805829778E+00
          0                 3           2             5    8     1       0.1934107505E-03       5    8    1         0.1109312850E-01      0.2654807395E-01
          0                 4           1             5    8     1      -0.8480443874E-05       5    8    1        -0.4993449381E-03      0.1193579621E-02

    ------------------------------------------------
       NWT REQUIRED            4 OUTER ITERATIONS 
       AND A TOTAL OF          7 INNER ITERATIONS.
    ------------------------------------------------

 NO OUTPUT CONTROL FOR STRESS PERIOD    9   TIME STEP    6
 
 SOLVING FOR HEAD 
                                                   Max.-Head-Change                         Max.-Flux-Residual
  Residual-Control   Outer-Iter.   Inner-Iter.     Column Row Layer    Maximum-Head-Change  Column Row Layer    Maximum-Flux-Residual          L2-NORM 
          0                 1           2             5    6     1       0.2811810914E-01       5    8    1         0.1524407402E+01      0.3702431648E+01
          0                 2           2             5    6     1      -0.2735946285E-02       5    8    1        -0.1524883308E+00      0.3688644574E+00
          0                 3           2             5    6     1       0.1855010789E-03       5    8    1         0.1062853400E-01      0.2572765085E-01
          0                 4           1             5    6     1      -0.8166165557E-05       5    8    1        -0.4803429849E-03      0.1160664305E-02

    ------------------------------------------------
       NWT REQUIRED            4 OUTER ITERATIONS 
       AND A TOTAL OF          7 INNER ITERATIONS.
    ------------------------------------------------

 NO OUTPUT CONTROL FOR STRESS PERIOD    9   TIME STEP    7
 
 SOLVING FOR HEAD 
                                                   Max.-Head-Change                         Max.-Flux-Residual
  Residual-Control   Outer-Iter.   Inner-Iter.     Column Row Layer    Maximum-Head-Change  Column Row Layer    Maximum-Flux-Residual          L2-NORM 
          0                 1           2             4    7     1      -0.1690171353E+00       4    7    1        -0.8835685035E+01      0.2125724993E+02
          0                 2           2             4    7     1       0.1644053585E-01       4    7    1         0.8835544708E+00      0.2125405167E+01
          0                 3           2             4    7     1      -0.1119541623E-02       4    7    1        -0.6184897246E-01      0.1487804874E+00
          0                 4           1             4    7     1       0.4454759906E-04       4    7    1         0.2529625897E-02      0.6086133642E-02

    ------------------------------------------------
       NWT REQUIRED            4 OUTER ITERATIONS 
       AND A TOTAL OF          7 INNER ITERATIONS.
    ------------------------------------------------

 NO OUTPUT CONTROL FOR STRESS PERIOD    9   TIME STEP    8
 
 SOLVING FOR HEAD 
                                                   Max.-Head-Change                         Max.-Flux-Residual
  Residual-Control   Outer-Iter.   Inner-Iter.     Column Row Layer    Maximum-Head-Change  Column Row Layer    Maximum-Flux-Residual          L2-NORM 
          0                 1           2             4    7     1      -0.1680492126E+00       4    7    1        -0.8788679773E+01      0.2090488173E+02
          0                 2           2             4    7     1       0.1634641288E-01       4    7    1         0.8788523980E+00      0.2092501542E+01
          0                 3           2             4    7     1      -0.1113132415E-02       4    7    1        -0.6151984176E-01      0.1464771545E+00
          0                 4           1             4    7     1       0.4429256990E-04       4    7    1         0.2516164361E-02      0.5991945218E-02

    ------------------------------------------------
       NWT REQUIRED            4 OUTER ITERATIONS 
       AND A TOTAL OF          7 INNER ITERATIONS.
    ------------------------------------------------

 NO OUTPUT CONTROL FOR STRESS PERIOD    9   TIME STEP    9
 
 SOLVING FOR HEAD 
                                                   Max.-Head-Change                         Max.-Flux-Residual
  Residual-Control   Outer-Iter.   Inner-Iter.     Column Row Layer    Maximum-Head-Change  Column Row Layer    Maximum-Flux-Residual          L2-NORM 
          0                 1           2             4    7     1      -0.1670227779E+00       4    7    1        -0.8738336585E+01      0.2056806154E+02
          0                 2           2             4    7     1       0.1624650623E-01       4    7    1         0.8738166995E+00      0.2056514814E+01
          0                 3           2             4    7     1      -0.1106329344E-02       4    7    1        -0.6116735585E-01      0.1439581849E+00
          0                 4           1             4    7     1       0.4402186807E-04       4    7    1         0.2501747583E-02      0.5888945901E-02

    ------------------------------------------------
       NWT REQUIRED            4 OUTER ITERATIONS 
       AND A TOTAL OF          7 INNER ITERATIONS.
    ------------------------------------------------

 NO OUTPUT CONTROL FOR STRESS PERIOD    9   TIME STEP   10
 
 SOLVING FOR HEAD 
                                                   Max.-Head-Change                         Max.-Flux-Residual
  Residual-Control   Outer-Iter.   Inner-Iter.     Column Row Layer    Maximum-Head-Change  Column Row Layer    Maximum-Flux-Residual          L2-NORM 
          0                 1           2             5    8     1       0.3905886317E-01       5    8    1         0.2129028285E+01      0.4931399374E+01
          0                 2           2             5    8     1      -0.3800173217E-02       5    8    1        -0.2129472720E+00      0.4921456877E+00
          0                 3           2             5    8     1       0.2579723233E-03       5    8    1         0.1486069149E-01      0.3435855208E-01
          0                 4           1             5    8     1      -0.1104866698E-04       5    8    1        -0.6534383328E-03      0.1509551252E-02

    ------------------------------------------------
       NWT REQUIRED            4 OUTER ITERATIONS 
       AND A TOTAL OF          7 INNER ITERATIONS.
    ------------------------------------------------

 NO OUTPUT CONTROL FOR STRESS PERIOD    9   TIME STEP   11
 
 SOLVING FOR HEAD 
                                                   Max.-Head-Change                         Max.-Flux-Residual
  Residual-Control   Outer-Iter.   Inner-Iter.     Column Row Layer    Maximum-Head-Change  Column Row Layer    Maximum-Flux-Residual          L2-NORM 
          0                 1           2             5    8     1       0.3730354600E-01       5    8    1         0.2031314813E+01      0.4763134975E+01
          0                 2           2             5    8     1      -0.3629430284E-02       5    8    1        -0.2031760338E+00      0.4752868369E+00
          0                 3           2             5    8     1       0.2463453470E-03       5    8    1         0.1417670348E-01      0.3317809600E-01
          0                 4           1             5    8     1      -0.1058601889E-04       5    8    1        -0.6254631851E-03      0.1462075466E-02

    ------------------------------------------------
       NWT REQUIRED            4 OUTER ITERATIONS 
       AND A TOTAL OF          7 INNER ITERATIONS.
    ------------------------------------------------

 NO OUTPUT CONTROL FOR STRESS PERIOD    9   TIME STEP   12
 
 SOLVING FOR HEAD 
                                                   Max.-Head-Change                         Max.-Flux-Residual
  Residual-Control   Outer-Iter.   Inner-Iter.     Column Row Layer    Maximum-Head-Change  Column Row Layer    Maximum-Flux-Residual          L2-NORM 
          0                 1           2             4    7     1      -0.1657483411E+00       4    7    1        -0.8671059570E+01      0.2045435833E+02
          0                 2           2             4    7     1       0.1612254392E-01       4    7    1         0.8670893758E+00      0.2045146674E+01
          0                 3           2             4    7     1      -0.1097887915E-02       4    7    1        -0.6069643942E-01      0.1431624460E+00
          0                 4           1             4    7     1       0.4368597615E-04       4    7    1         0.2482487102E-02      0.5856390766E-02

    ------------------------------------------------
       NWT REQUIRED            4 OUTER ITERATIONS 
       AND A TOTAL OF          7 INNER ITERATIONS.
    ------------------------------------------------

 NO OUTPUT CONTROL FOR STRESS PERIOD    9   TIME STEP   13
 
 SOLVING FOR HEAD 
                                                   Max.-Head-Change                         Max.-Flux-Residual
  Residual-Control   Outer-Iter.   Inner-Iter.     Column Row Layer    Maximum-Head-Change  Column Row Layer    Maximum-Flux-Residual          L2-NORM 
          0                 1           2             4    7     1      -0.1646886819E+00       4    7    1        -0.8618688484E+01      0.2013520875E+02
          0                 2           2             4    7     1       0.1601945018E-01       4    7    1         0.8618510594E+00      0.2013228223E+01
          0                 3           2             4    7     1      -0.1090867787E-02       4    7    1        -0.6032976852E-01      0.1409282101E+00
          0                 4           1             4    7     1       0.4340663814E-04       4    7    1         0.2467490199E-02      0.5765017360E-02

    ------------------------------------------------
       NWT REQUIRED            4 OUTER ITERATIONS 
       AND A TOTAL OF          7 INNER ITERATIONS.
    ------------------------------------------------

 NO OUTPUT CONTROL FOR STRESS PERIOD    9   TIME STEP   14
 
 SOLVING FOR HEAD 
                                                   Max.-Head-Change                         Max.-Flux-Residual
  Residual-Control   Outer-Iter.   Inner-Iter.     Column Row Layer    Maximum-Head-Change  Column Row Layer    Maximum-Flux-Residual          L2-NORM 
          0                 1           2             4    7     1      -0.1635814556E+00       4    7    1        -0.8563580715E+01      0.1983125301E+02
          0                 2           2             4    7     1       0.1591173160E-01       4    7    1         0.8563392170E+00      0.1982829160E+01
          0                 3           2             4    7     1      -0.1083532704E-02       4    7    1        -0.5994394947E-01      0.1388003308E+00
          0                 4           1             4    7     1       0.4311476723E-04       4    7    1         0.2451710114E-02      0.5677995587E-02

    ------------------------------------------------
       NWT REQUIRED            4 OUTER ITERATIONS 
       AND A TOTAL OF          7 INNER ITERATIONS.
    ------------------------------------------------

 NO OUTPUT CONTROL FOR STRESS PERIOD    9   TIME STEP   15
 
 SOLVING FOR HEAD 
                                                   Max.-Head-Change                         Max.-Flux-Residual
  Residual-Control   Outer-Iter.   Inner-Iter.     Column Row Layer    Maximum-Head-Change  Column Row Layer    Maximum-Flux-Residual          L2-NORM 
          0                 1           2             4    7     1      -0.1624314129E+00       4    7    1        -0.8505997400E+01      0.1954137949E+02
          0                 2           2             4    7     1       0.1579985011E-01       4    7    1         0.8505799521E+00      0.1953838524E+01
          0                 3           2             4    7     1      -0.1075914124E-02       4    7    1        -0.5954080960E-01      0.1367710025E+00
          0                 4           1             4    7     1       0.4281161657E-04       4    7    1         0.2435221646E-02      0.5595001118E-02

    ------------------------------------------------
       NWT REQUIRED            4 OUTER ITERATIONS 
       AND A TOTAL OF          7 INNER ITERATIONS.
    ------------------------------------------------

 NO OUTPUT CONTROL FOR STRESS PERIOD    9   TIME STEP   16
 
 SOLVING FOR HEAD 
                                                   Max.-Head-Change                         Max.-Flux-Residual
  Residual-Control   Outer-Iter.   Inner-Iter.     Column Row Layer    Maximum-Head-Change  Column Row Layer    Maximum-Flux-Residual          L2-NORM 
          0                 1           2             4    7     1      -0.1612431471E+00       4    7    1        -0.8446192416E+01      0.1926455585E+02
          0                 2           2             4    7     1       0.1568425115E-01       4    7    1         0.8445986424E+00      0.1926134599E+01
          0                 3           2             4    7     1      -0.1068042379E-02       4    7    1        -0.5912212541E-01      0.1348317538E+00
          0                 4           1             4    7     1       0.4249839167E-04       4    7    1         0.2418097391E-02      0.5515701043E-02

    ------------------------------------------------
       NWT REQUIRED            4 OUTER ITERATIONS 
       AND A TOTAL OF          7 INNER ITERATIONS.
    ------------------------------------------------

 NO OUTPUT CONTROL FOR STRESS PERIOD    9   TIME STEP   17
 
 SOLVING FOR HEAD 
                                                   Max.-Head-Change                         Max.-Flux-Residual
  Residual-Control   Outer-Iter.   Inner-Iter.     Column Row Layer    Maximum-Head-Change  Column Row Layer    Maximum-Flux-Residual          L2-NORM 
          0                 1           2             5    8     1       0.5302035937E-01       5    8    1         0.2894760103E+01      0.6624482218E+01
          0                 2           2             5    8     1      -0.5158228781E-02       5    8    1        -0.2895192508E+00      0.6617478152E+00
          0                 3           2             5    8     1       0.3504510374E-03       5    8    1         0.2022074370E-01      0.4623076925E-01
          0                 4           1             5    8     1      -0.1472848460E-04       5    8    1        -0.8726647154E-03      0.1992046320E-02

    ------------------------------------------------
       NWT REQUIRED            4 OUTER ITERATIONS 
       AND A TOTAL OF          7 INNER ITERATIONS.
    ------------------------------------------------

 NO OUTPUT CONTROL FOR STRESS PERIOD    9   TIME STEP   18
 
 SOLVING FOR HEAD 
                                                   Max.-Head-Change                         Max.-Flux-Residual
  Residual-Control   Outer-Iter.   Inner-Iter.     Column Row Layer    Maximum-Head-Change  Column Row Layer    Maximum-Flux-Residual          L2-NORM 
          0                 1           2             5    8     1       0.5055405239E-01       5    8    1         0.2757386421E+01      0.6385684768E+01
          0                 2           2             5    8     1      -0.4918327600E-02       5    8    1        -0.2757821086E+00      0.6378447427E+00
          0                 3           2             5    8     1       0.3341146246E-03       5    8    1         0.1925914119E-01      0.4455700391E-01
          0                 4           1             5    8     1      -0.1407844400E-04       5    8    1        -0.8333351268E-03      0.1924429491E-02

    ------------------------------------------------
       NWT REQUIRED            4 OUTER ITERATIONS 
       AND A TOTAL OF          7 INNER ITERATIONS.
    ------------------------------------------------

 NO OUTPUT CONTROL FOR STRESS PERIOD    9   TIME STEP   19
 
 SOLVING FOR HEAD 
                                                   Max.-Head-Change                         Max.-Flux-Residual
  Residual-Control   Outer-Iter.   Inner-Iter.     Column Row Layer    Maximum-Head-Change  Column Row Layer    Maximum-Flux-Residual          L2-NORM 
          0                 1           2             5    8     1       0.4824965119E-01       5    8    1         0.2629129451E+01      0.6161770129E+01
          0                 2           2             5    8     1      -0.4694175024E-02       5    8    1        -0.2629566083E+00      0.6154287017E+00
          0                 3           2             5    8     1       0.3188506373E-03       5    8    1         0.1836135393E-01      0.4298735651E-01
          0                 4           1             5    8     1      -0.1347107568E-04       5    8    1        -0.7966155792E-03      0.1860952885E-02

    ------------------------------------------------
       NWT REQUIRED            4 OUTER ITERATIONS 
       AND A TOTAL OF          7 INNER ITERATIONS.
    ------------------------------------------------

 NO OUTPUT CONTROL FOR STRESS PERIOD    9   TIME STEP   20
 
 SOLVING FOR HEAD 
                                                   Max.-Head-Change                         Max.-Flux-Residual
  Residual-Control   Outer-Iter.   Inner-Iter.     Column Row Layer    Maximum-Head-Change  Column Row Layer    Maximum-Flux-Residual          L2-NORM 
          0                 1           2             4    7     1      -0.3580420467E-01       4    7    1        -0.1886241735E+01      0.4321897764E+01
          0                 2           2             4    7     1       0.3481894052E-02       4    7    1         0.1885765394E+00      0.4309065573E+00
          0                 3           2             4    7     1      -0.2379290977E-03       4    7    1        -0.1324592123E-01      0.3025957921E-01
          0                 4           1             4    7     1       0.8665065717E-05       4    7    1         0.4962208793E-03      0.1157373534E-02

    ------------------------------------------------
       NWT REQUIRED            4 OUTER ITERATIONS 
       AND A TOTAL OF          7 INNER ITERATIONS.
    ------------------------------------------------

 NO OUTPUT CONTROL FOR STRESS PERIOD    9   TIME STEP   21
 
 SOLVING FOR HEAD 
                                                   Max.-Head-Change                         Max.-Flux-Residual
  Residual-Control   Outer-Iter.   Inner-Iter.     Column Row Layer    Maximum-Head-Change  Column Row Layer    Maximum-Flux-Residual          L2-NORM 
          0                 1           2             5    8     1       0.4599174252E-01       5    8    1         0.2502916564E+01      0.5960373550E+01
          0                 2           2             5    8     1      -0.4474544588E-02       5    8    1        -0.2503354943E+00      0.5952686441E+00
          0                 3           2             5    8     1       0.3038945941E-03       5    8    1         0.1747787392E-01      0.4157530119E-01
          0                 4           1             5    8     1      -0.1287596178E-04       5    8    1        -0.7604812172E-03      0.1804183161E-02

    ------------------------------------------------
       NWT REQUIRED            4 OUTER ITERATIONS 
       AND A TOTAL OF          7 INNER ITERATIONS.
    ------------------------------------------------

 NO OUTPUT CONTROL FOR STRESS PERIOD    9   TIME STEP   22
 
 SOLVING FOR HEAD 
                                                   Max.-Head-Change                         Max.-Flux-Residual
  Residual-Control   Outer-Iter.   Inner-Iter.     Column Row Layer    Maximum-Head-Change  Column Row Layer    Maximum-Flux-Residual          L2-NORM 
          0                 1           2             5    8     1       0.4399282714E-01       5    8    1         0.2391861270E+01      0.5764252320E+01
          0                 2           2             5    8     1      -0.4280106771E-02       5    8    1        -0.2392301138E+00      0.5756315431E+00
          0                 3           2             5    8     1       0.2906540784E-03       5    8    1         0.1670049553E-01      0.4020039156E-01
          0                 4           1             5    8     1      -0.1234910967E-04       5    8    1        -0.7286864147E-03      0.1748583171E-02

    ------------------------------------------------
       NWT REQUIRED            4 OUTER ITERATIONS 
       AND A TOTAL OF          7 INNER ITERATIONS.
    ------------------------------------------------

 NO OUTPUT CONTROL FOR STRESS PERIOD    9   TIME STEP   23
 
 SOLVING FOR HEAD 
                                                   Max.-Head-Change                         Max.-Flux-Residual
  Residual-Control   Outer-Iter.   Inner-Iter.     Column Row Layer    Maximum-Head-Change  Column Row Layer    Maximum-Flux-Residual          L2-NORM 
          0                 1           2             5    6     1       0.4214182075E-01       5    8    1         0.2287903823E+01      0.5579609427E+01
          0                 2           2             5    6     1      -0.4100056664E-02       5    8    1        -0.2288345007E+00      0.5571420278E+00
          0                 3           2             5    6     1       0.2783920722E-03       5    8    1         0.1597280106E-01      0.3890585380E-01
          0                 4           1             5    6     1      -0.1186238414E-04       5    8    1        -0.6989236513E-03      0.1696294538E-02

    ------------------------------------------------
       NWT REQUIRED            4 OUTER ITERATIONS 
       AND A TOTAL OF          7 INNER ITERATIONS.
    ------------------------------------------------

 NO OUTPUT CONTROL FOR STRESS PERIOD    9   TIME STEP   24
 
 SOLVING FOR HEAD 
                                                   Max.-Head-Change                         Max.-Flux-Residual
  Residual-Control   Outer-Iter.   Inner-Iter.     Column Row Layer    Maximum-Head-Change  Column Row Layer    Maximum-Flux-Residual          L2-NORM 
          0                 1           2             4    7     1      -0.1811354496E-01       4    7    1        -0.9549235977E+00      0.2769969558E+01
          0                 2           2             4    7     1       0.1761097970E-02       4    7    1         0.9544625651E-01      0.2750905238E+00
          0                 3           2             4    7     1      -0.1207490443E-03       4    7    1        -0.6726784140E-02      0.1933433807E-01
          0                 4           1             3    7     1       0.4213225551E-05       6    7    1         0.2306930412E-03      0.7397677416E-03

    ------------------------------------------------
       NWT REQUIRED            4 OUTER ITERATIONS 
       AND A TOTAL OF          7 INNER ITERATIONS.
    ------------------------------------------------

 NO OUTPUT CONTROL FOR STRESS PERIOD    9   TIME STEP   25
 
 SOLVING FOR HEAD 
                                                   Max.-Head-Change                         Max.-Flux-Residual
  Residual-Control   Outer-Iter.   Inner-Iter.     Column Row Layer    Maximum-Head-Change  Column Row Layer    Maximum-Flux-Residual          L2-NORM 
          0                 1           2             5    6     1       0.4027620980E-01       5    6    1         0.2180279301E+01      0.5390893422E+01
          0                 2           2             5    6     1      -0.3918585631E-02       5    6    1        -0.2180721347E+00      0.5382456666E+00
          0                 3           2             5    6     1       0.2660345465E-03       5    6    1         0.1521943429E-01      0.3758260387E-01
          0                 4           1             5    6     1      -0.1137066748E-04       5    6    1        -0.6681109139E-03      0.1642839647E-02

    ------------------------------------------------
       NWT REQUIRED            4 OUTER ITERATIONS 
       AND A TOTAL OF          7 INNER ITERATIONS.
    ------------------------------------------------

 NO OUTPUT CONTROL FOR STRESS PERIOD    9   TIME STEP   26
 
 SOLVING FOR HEAD 
                                                   Max.-Head-Change                         Max.-Flux-Residual
  Residual-Control   Outer-Iter.   Inner-Iter.     Column Row Layer    Maximum-Head-Change  Column Row Layer    Maximum-Flux-Residual          L2-NORM 
          0                 1           2             5    6     1       0.3872796561E-01       5    6    1         0.2094847934E+01      0.5228418058E+01
          0                 2           2             5    6     1      -0.3767985295E-02       5    6    1        -0.2095291086E+00      0.5219728100E+00
          0                 3           2             5    6     1       0.2557792063E-03       5    6    1         0.1462142117E-01      0.3644324832E-01
          0                 4           1             5    6     1      -0.1096259885E-04       5    6    1        -0.6436521567E-03      0.1596804031E-02

    ------------------------------------------------
       NWT REQUIRED            4 OUTER ITERATIONS 
       AND A TOTAL OF          7 INNER ITERATIONS.
    ------------------------------------------------

 NO OUTPUT CONTROL FOR STRESS PERIOD    9   TIME STEP   27
 
 SOLVING FOR HEAD 
                                                   Max.-Head-Change                         Max.-Flux-Residual
  Residual-Control   Outer-Iter.   Inner-Iter.     Column Row Layer    Maximum-Head-Change  Column Row Layer    Maximum-Flux-Residual          L2-NORM 
          0                 1           2             5    6     1       0.3726747881E-01       5    6    1         0.2014313322E+01      0.5074861467E+01
          0                 2           2             5    6     1      -0.3625921225E-02       5    6    1        -0.2014757487E+00      0.5065918449E+00
          0                 3           2             5    6     1       0.2461051553E-03       5    6    1         0.1405768478E-01      0.3536633876E-01
          0                 4           1             5    6     1      -0.1057766005E-04       5    6    1        -0.6205953196E-03      0.1553240438E-02

    ------------------------------------------------
       NWT REQUIRED            4 OUTER ITERATIONS 
       AND A TOTAL OF          7 INNER ITERATIONS.
    ------------------------------------------------

 NO OUTPUT CONTROL FOR STRESS PERIOD    9   TIME STEP   28
 
 SOLVING FOR HEAD 
                                                   Max.-Head-Change                         Max.-Flux-Residual
  Residual-Control   Outer-Iter.   Inner-Iter.     Column Row Layer    Maximum-Head-Change  Column Row Layer    Maximum-Flux-Residual          L2-NORM 
          0                 1           2             3    7     1      -0.1449548304E-01       4    7    1        -0.7416864994E+00      0.2418529023E+01
          0                 2           2             3    7     1       0.1410004714E-02       4    7    1         0.7412286253E-01      0.2397003238E+00
          0                 3           1             3    7     1      -0.9602344547E-04       4    7    1        -0.5234142924E-02      0.1686199902E-01

    ------------------------------------------------
       NWT REQUIRED            3 OUTER ITERATIONS 
       AND A TOTAL OF          5 INNER ITERATIONS.
    ------------------------------------------------

 NO OUTPUT CONTROL FOR STRESS PERIOD    9   TIME STEP   29
 
 SOLVING FOR HEAD 
                                                   Max.-Head-Change                         Max.-Flux-Residual
  Residual-Control   Outer-Iter.   Inner-Iter.     Column Row Layer    Maximum-Head-Change  Column Row Layer    Maximum-Flux-Residual          L2-NORM 
          0                 1           2             5    6     1       0.3584044794E-01       5    6    1         0.1935587042E+01      0.4925298012E+01
          0                 2           2             5    6     1      -0.3487111540E-02       5    6    1        -0.1936032244E+00      0.4916129988E+00
          0                 3           2             5    6     1       0.2366527148E-03       5    6    1         0.1350660685E-01      0.3431752175E-01
          0                 4           1             5    6     1      -0.1020153979E-04       5    6    1        -0.5980561898E-03      0.1510856284E-02

    ------------------------------------------------
       NWT REQUIRED            4 OUTER ITERATIONS 
       AND A TOTAL OF          7 INNER ITERATIONS.
    ------------------------------------------------

 NO OUTPUT CONTROL FOR STRESS PERIOD    9   TIME STEP   30



 STREAM LISTING     PERIOD      9   STEP       30

 LAYER ROW COL. STREAM  RCH.  FLOW INTO     FLOW TO   FLOW OUT OF   OVRLND.     DIRECT     STREAM       STREAM     STREAM     STREAM   STREAMBED  STREAMBED
                SEG.NO.  NO.  STRM. RCH.    AQUIFER    STRM. RCH.    RUNOFF     PRECIP       ET          HEAD       DEPTH      WIDTH   CONDCTNC.   GRADIENT

   1    1    1     1     1    6.1000E+01  3.7546E-01   6.0625E+01  0.000E+00  0.000E+00  0.000E+00  1.09459E+03  1.538E+00  1.839E+01  8.274E-02  1.513E+00
   1    2    2     1     2    6.0625E+01  5.8146E-01   6.0043E+01  0.000E+00  0.000E+00  0.000E+00  1.08959E+03  1.532E+00  1.833E+01  1.283E-01  1.511E+00
   1    3    3     1     3    6.0043E+01  4.9589E-01   5.9547E+01  0.000E+00  0.000E+00  0.000E+00  1.08394E+03  1.525E+00  1.826E+01  1.096E-01  1.508E+00
   1    3    4     1     4    5.9547E+01  4.5664E-01   5.9091E+01  0.000E+00  0.000E+00  0.000E+00  1.07893E+03  1.519E+00  1.821E+01  1.010E-01  1.506E+00
   1    4    5     2     1    5.7091E+01  3.8827E-01   5.6702E+01  0.000E+00  0.000E+00  0.000E+00  1.07391E+03  1.978E+00  1.200E+01  7.800E-02  1.659E+00
   1    5    6     2     2    5.6702E+01  2.9824E-01   5.6404E+01  0.000E+00  0.000E+00  0.000E+00  1.06848E+03  1.971E+00  1.200E+01  6.000E-02  1.657E+00
   1    6    6     2     3    5.6404E+01  2.9787E-01   5.6106E+01  0.000E+00  0.000E+00  0.000E+00  1.06376E+03  1.964E+00  1.200E+01  6.000E-02  1.655E+00
   1    7    6     2     4    5.6106E+01  2.9749E-01   5.5809E+01  0.000E+00  0.000E+00  0.000E+00  1.05903E+03  1.958E+00  1.200E+01  6.000E-02  1.653E+00
   1    8    6     2     5    5.5809E+01  2.9712E-01   5.5512E+01  0.000E+00  0.000E+00  0.000E+00  1.05431E+03  1.952E+00  1.200E+01  6.000E-02  1.651E+00
   1    3    5     3     1    2.0000E+00  2.8252E-01   1.7175E+00  0.000E+00  0.000E+00  0.000E+00  1.07555E+03  1.909E+00  9.636E+00  7.227E-02  1.955E+00
   1    3    6     3     2    1.7175E+00  2.4905E-01   1.4684E+00  0.000E+00  0.000E+00  0.000E+00  1.07264E+03  1.727E+00  8.909E+00  6.682E-02  1.864E+00
   1    3    7     3     3    1.4684E+00  1.9718E-01   1.2712E+00  0.000E+00  0.000E+00  0.000E+00  1.06987E+03  1.555E+00  8.218E+00  5.547E-02  1.777E+00
   1    4    8     3     4    1.2712E+00  2.2567E-01   1.0456E+00  0.000E+00  0.000E+00  0.000E+00  1.06682E+03  1.364E+00  7.455E+00  6.709E-02  1.682E+00
   1    5    8     3     5    1.0456E+00  1.5790E-01   8.8768E-01  0.000E+00  0.000E+00  0.000E+00  1.06362E+03  1.164E+00  6.655E+00  4.991E-02  1.582E+00
   1    6    8     3     6    8.8768E-01  5.5980E-02   8.3170E-01  0.000E+00  0.000E+00  0.000E+00  1.06158E+03  1.036E+00  6.145E+00  1.844E-02  1.518E+00
   1    5   10     4     1    1.0000E+01  9.0919E-02   9.9091E+00  0.000E+00  0.000E+00  0.000E+00  1.07836E+03  6.368E-01  1.000E+01  2.500E-02  1.212E+00
   1    5    9     4     2    9.9091E+00  1.8158E-01   9.7275E+00  0.000E+00  0.000E+00  0.000E+00  1.07154E+03  6.315E-01  1.000E+01  5.000E-02  1.211E+00
   1    6    8     4     3    9.7275E+00  1.2689E-01   9.6006E+00  0.000E+00  0.000E+00  0.000E+00  1.06381E+03  6.256E-01  1.000E+01  3.500E-02  1.209E+00
   1    6    8     5     1    1.0432E+01  2.2686E-01   1.0205E+01  0.000E+00  0.000E+00  0.000E+00  1.05868E+03  6.790E-01  1.542E+01  6.166E-02  1.226E+00
   1    7    7     5     2    1.0205E+01  2.7894E-01   9.9265E+00  0.000E+00  0.000E+00  0.000E+00  1.05417E+03  6.732E-01  1.519E+01  7.594E-02  1.224E+00
   1    8    7     5     3    9.9265E+00  1.9221E-01   9.7343E+00  0.000E+00  0.000E+00  0.000E+00  1.04992E+03  6.676E-01  1.497E+01  5.241E-02  1.223E+00
   1    8    6     5     4    9.7343E+00  1.3577E-01   9.5985E+00  0.000E+00  0.000E+00  0.000E+00  1.04691E+03  6.637E-01  1.482E+01  3.706E-02  1.221E+00
   1    9    6     6     1    6.5110E+01  3.0992E-01   6.4800E+01  0.000E+00  0.000E+00  0.000E+00  1.04489E+03  2.165E+00  1.200E+01  6.000E-02  1.722E+00
   1   10    7     6     2    6.4800E+01  3.0955E-01   6.4491E+01  0.000E+00  0.000E+00  0.000E+00  1.04034E+03  2.159E+00  1.200E+01  6.000E-02  1.720E+00
   1   11    7     6     3    6.4491E+01  3.0918E-01   6.4181E+01  0.000E+00  0.000E+00  0.000E+00  1.03579E+03  2.153E+00  1.200E+01  6.000E-02  1.718E+00
   1   12    7     6     4    6.4181E+01  3.0881E-01   6.3873E+01  0.000E+00  0.000E+00  0.000E+00  1.03124E+03  2.147E+00  1.200E+01  6.000E-02  1.716E+00
   1   13    7     6     5    6.3873E+01  2.3845E-02   6.3849E+01  0.000E+00  0.000E+00  0.000E+00  1.02805E+03  2.143E+00  1.200E+01  2.400E-02  3.312E-01
   1   14    9     7     1    1.5000E+02  1.3338E+00   1.4867E+02  0.000E+00  0.000E+00  0.000E+00  1.03987E+03  2.288E+00  5.529E+01  5.593E-01  7.949E-01
   1   13    8     7     2    1.4867E+02  1.8241E+00   1.4684E+02  0.000E+00  0.000E+00  0.000E+00  1.03478E+03  2.279E+00  5.526E+01  6.148E-01  9.890E-01
   1   13    7     7     3    1.4684E+02  1.4692E+00   1.4537E+02  0.000E+00  0.000E+00  0.000E+00  1.02969E+03  2.271E+00  5.522E+01  5.585E-01  8.770E-01
   1   13    6     8     1    2.0922E+02  1.1349E+00   2.0809E+02  0.000E+00  0.000E+00  0.000E+00  1.02506E+03  3.188E+00  4.623E+01  4.711E-01  8.031E-01
   1   13    5     8     2    2.0809E+02  4.4251E-01   2.0764E+02  0.000E+00  0.000E+00  0.000E+00  1.01881E+03  3.183E+00  4.616E+01  4.704E-01  3.136E-01
   1   13    4     8     3    2.0764E+02 -1.1384E+00   2.0878E+02  0.000E+00  0.000E+00  0.000E+00  1.01256E+03  3.185E+00  4.619E+01  4.707E+00 -8.062E-02
   1   13    3     8     4    2.0878E+02 -2.4642E+00   2.1125E+02  0.000E+00  0.000E+00  0.000E+00  1.00632E+03  3.196E+00  4.634E+01  4.722E+00 -1.739E-01
   1   13    2     8     5    2.1125E+02 -1.8174E+00   2.1306E+02  0.000E+00  0.000E+00  0.000E+00  1.00008E+03  3.208E+00  4.651E+01  4.740E+00 -1.278E-01
   1   13    1     8     6    2.1306E+02 -8.5742E-01   2.1392E+02  0.000E+00  0.000E+00  0.000E+00  9.95091E+02  3.215E+00  4.662E+01  2.851E+00 -1.003E-01





UNSATURATED ZONE PACKAGE VOLUMETRIC BUDGET FOR  TIME STEP    30 STRESS PERIOD    9
  ------------------------------------------------------------------------------



     CUMULATIVE VOLUMES      L**3       RATES FOR THIS TIME STEP      L**3/T
     ------------------                 ------------------------

           IN:                                      IN:
           ---                                      ---
        INFILTRATION =   186725213.5979          INFILTRATION =           0.8486

          OUT:                                     OUT:
          ----                                     ----
              UZF ET =    86263091.0339                UZF ET =          10.3549
        UZF RECHARGE =     7675785.1206          UZF RECHARGE =           0.1313

            IN - OUT =    92786337.4434              IN - OUT =          -9.6376

          STORAGE:                                 STORAGE:
          --------                                 --------
      STORAGE CHANGE =    92848141.6808        STORAGE CHANGE =          -9.6270

 PERCENT DISCREPANCY IS DIFFERENCE BETWEEN IN-OUT MINUS CHANGE IN STORAGE
 DIVIDED BY THE AVERAGE OF IN AND OUT TIMES 100

 PERCENT DISCREPANCY =          -0.01     PERCENT DISCREPANCY =          -0.10






1
  VOLUMETRIC BUDGET FOR ENTIRE MODEL AT END OF TIME STEP   30, STRESS PERIOD   9
  ------------------------------------------------------------------------------

     CUMULATIVE VOLUMES      L**3       RATES FOR THIS TIME STEP      L**3/T
     ------------------                 ------------------------

           IN:                                      IN:
           ---                                      ---
               AWU WELLS =   168834144.0000                 AWU WELLS =       1.0952E-03
      DIVERSION SEGMENTS =           0.0000        DIVERSION SEGMENTS =           0.0000
           GW IRRIGATION =           0.0000             GW IRRIGATION =           0.0000
           SW IRRIGATION =           0.0000             SW IRRIGATION =           0.0000
        SYSTEM LOSSES GW =           0.0000          SYSTEM LOSSES GW =           0.0000
        SYSTEM LOSSES SW =           0.0000          SYSTEM LOSSES SW =           0.0000

                TOTAL IN =   168834144.0000                  TOTAL IN =       1.0952E-03

          OUT:                                     OUT:
          ----                                     ----
               AWU WELLS =           0.0000                 AWU WELLS =           0.0000
      DIVERSION SEGMENTS =           0.0000        DIVERSION SEGMENTS =           0.0000
           GW IRRIGATION =   168834144.0000             GW IRRIGATION =       1.0952E-03
           SW IRRIGATION =           0.0000             SW IRRIGATION =           0.0000
        SYSTEM LOSSES GW =           0.0000          SYSTEM LOSSES GW =           0.0000
        SYSTEM LOSSES SW =           0.0000          SYSTEM LOSSES SW =           0.0000

               TOTAL OUT =   168834144.0000                 TOTAL OUT =       1.0952E-03

                IN - OUT =           0.0000                  IN - OUT =           0.0000

     PERCENT DISCREPANCY =           0.00         PERCENT DISCREPANCY =           0.00



1
  VOLUMETRIC BUDGET FOR ENTIRE MODEL AT END OF TIME STEP   30, STRESS PERIOD   9
  ------------------------------------------------------------------------------

     CUMULATIVE VOLUMES      L**3       RATES FOR THIS TIME STEP      L**3/T
     ------------------                 ------------------------

           IN:                                      IN:
           ---                                      ---
             STORAGE     =   237054080.0000               STORAGE     =          10.8179
       CONSTANT HEAD     =           0.0000         CONSTANT HEAD     =           0.0000
     HEAD DEP BOUNDS     =     6031715.0000       HEAD DEP BOUNDS     =           0.2856
      STREAM LEAKAGE     =   274786016.0000        STREAM LEAKAGE     =          13.3557
        UZF RECHARGE     =     7675784.5000          UZF RECHARGE     =           0.1313
               GW ET     =           0.0000                 GW ET     =           0.0000
     SURFACE LEAKAGE     =           0.0000       SURFACE LEAKAGE     =           0.0000
           AWU WELLS     =           0.0000             AWU WELLS     =           0.0000

                TOTAL IN =   525547584.0000                  TOTAL IN =          24.5905

          OUT:                                     OUT:
          ----                                     ----
             STORAGE     =   109128088.0000               STORAGE     =          11.6758
       CONSTANT HEAD     =           0.0000         CONSTANT HEAD     =           0.0000
     HEAD DEP BOUNDS     =     6137590.5000       HEAD DEP BOUNDS     =           0.2809
      STREAM LEAKAGE     =   190542880.0000        STREAM LEAKAGE     =           6.2774
        UZF RECHARGE     =           0.0000          UZF RECHARGE     =           0.0000
               GW ET     =    50909996.0000                 GW ET     =           6.3553
     SURFACE LEAKAGE     =           0.0000       SURFACE LEAKAGE     =           0.0000
           AWU WELLS     =   168834144.0000             AWU WELLS     =       1.0952E-03

               TOTAL OUT =   525552704.0000                 TOTAL OUT =          24.5905

                IN - OUT =       -5120.0000                  IN - OUT =       2.0981E-05

     PERCENT DISCREPANCY =          -0.00         PERCENT DISCREPANCY =           0.00






         TIME SUMMARY AT END OF TIME STEP   30 IN STRESS PERIOD    9
                    SECONDS     MINUTES      HOURS       DAYS        YEARS
                    -----------------------------------------------------------
   TIME STEP LENGTH  87600.      1460.0      24.333      1.0139     2.77588E-03
 STRESS PERIOD TIME 2.62800E+06  43800.      730.00      30.417     8.32763E-02
         TOTAL TIME 2.11104E+07 3.51840E+05  5864.0      244.33     0.66895    
1
1
                            STRESS PERIOD NO.   10, LENGTH =   2628000.    
                            -----------------------------------------------

                              NUMBER OF TIME STEPS =    30

                               MULTIPLIER FOR DELT =     1.000

                            INITIAL TIME STEP SIZE =   87600.00    

 REUSING NON-PARAMETER GHB CELLS FROM LAST STRESS PERIOD

      2 GHB CELLS

 REUSING STREAM SEGMENT DATA FROM LAST STRESS PERIOD



            AREAL INFILTRATION RATE
 READING ON UNIT   19 WITH FORMAT: (10F4.0)            

            1           2           3           4           5           6           7           8           9          10
 ........................................................................................................................
   1   1.0000E-10  2.0000E-10   0.000       0.000       0.000       0.000       0.000       0.000       0.000       0.000    
   2   2.0000E-10  1.0000E-10  2.0000E-10   0.000       0.000      8.0000E-10  8.0000E-10  5.0000E-10   0.000       0.000    
   3    0.000      5.0000E-10  1.0000E-10  1.0000E-10  8.0000E-10  8.0000E-10  5.0000E-10  5.0000E-10   0.000       0.000    
   4   8.0000E-10  5.0000E-10  1.0000E-10  1.0000E-10  1.0000E-10  1.0000E-10  1.0000E-10  1.0000E-10  2.0000E-10   0.000    
   5   8.0000E-10  5.0000E-10  1.0000E-10  1.0000E-10  1.0000E-10  1.0000E-10  1.0000E-10  1.0000E-10  1.0000E-10  1.0000E-10
   6   8.0000E-10  5.0000E-10  5.0000E-10  2.0000E-10  2.0000E-10  1.0000E-10  1.0000E-10  1.0000E-10  1.0000E-10  5.0000E-10
   7   8.0000E-10  5.0000E-10  5.0000E-10  2.0000E-10  2.0000E-10  1.0000E-10  1.0000E-10  2.0000E-10  2.0000E-10   0.000    
   8    0.000      5.0000E-10  5.0000E-10  2.0000E-10  2.0000E-10  1.0000E-10  1.0000E-10  2.0000E-10  5.0000E-10   0.000    
   9    0.000      5.0000E-10  5.0000E-10  2.0000E-10  2.0000E-10  1.0000E-10  1.0000E-10  2.0000E-10  5.0000E-10   0.000    
  10    0.000      5.0000E-10  5.0000E-10  2.0000E-10  2.0000E-10  1.0000E-10  1.0000E-10  2.0000E-10  5.0000E-10  8.0000E-10
  11    0.000      1.0000E-10  1.0000E-10  1.0000E-10  1.0000E-10  1.0000E-10  1.0000E-10  2.0000E-10  5.0000E-10   0.000    
  12   1.0000E-10  1.0000E-10  1.0000E-10  1.0000E-10  1.0000E-10  1.0000E-10  1.0000E-10  1.0000E-10  2.0000E-10   0.000    
  13   1.0000E-10  1.0000E-10  2.0000E-10  2.0000E-10  2.0000E-10  2.0000E-10  2.0000E-10  1.0000E-10  1.0000E-10   0.000    
  14    0.000      2.0000E-10  5.0000E-10  5.0000E-10  5.0000E-10  5.0000E-10  5.0000E-10  2.0000E-10  1.0000E-10   0.000    
  15    0.000       0.000      8.0000E-10  8.0000E-10  8.0000E-10  8.0000E-10   0.000       0.000       0.000       0.000    

                  ET RATE =  1.500000E-08

 USING ET EXTINCTION DEPTH FROM PREVIOUS STRESS PERIOD. CURRENT PERIOD IS:      10

 USING EXTINCTION WATER CONTENT FROM PREVIOUS STRESS PERIOD. CURRENT PERIOD IS:      10

 PROCESSING AWU STRESS PERIOD DATA

 READING AWU STRESS PERIOD DATA

 READING IRRIGATION WELL

 END PROCESSING AWU STRESS PERIOD DATA OPTIONS
 
 SOLVING FOR HEAD 
                                                   Max.-Head-Change                         Max.-Flux-Residual
  Residual-Control   Outer-Iter.   Inner-Iter.     Column Row Layer    Maximum-Head-Change  Column Row Layer    Maximum-Flux-Residual          L2-NORM 
          0                 1           2             5    6     1       0.3454354361E-01       5    6    1         0.1864165961E+01      0.5184359469E+01
          0                 2           2             5    6     1      -0.3360428401E-02       5    6    1        -0.1864319863E+00      0.5156008903E+00
          0                 3           2             5    6     1       0.2285425451E-03       5    6    1         0.1303383340E-01      0.3589246600E-01
          0                 4           1             5    6     1      -0.9376341992E-05       5    6    1        -0.5495055252E-03      0.1496254385E-02

    ------------------------------------------------
       NWT REQUIRED            4 OUTER ITERATIONS 
       AND A TOTAL OF          7 INNER ITERATIONS.
    ------------------------------------------------

 NO OUTPUT CONTROL FOR STRESS PERIOD   10   TIME STEP    1
 
 SOLVING FOR HEAD 
                                                   Max.-Head-Change                         Max.-Flux-Residual
  Residual-Control   Outer-Iter.   Inner-Iter.     Column Row Layer    Maximum-Head-Change  Column Row Layer    Maximum-Flux-Residual          L2-NORM 
          0                 1           2             5    7     1       0.3366152676E-01       5    6    1         0.1796674146E+01      0.4863964316E+01
          0                 2           2             5    7     1      -0.3274644911E-02       5    6    1        -0.1796828481E+00      0.4850253614E+00
          0                 3           2             5    7     1       0.2226968909E-03       5    6    1         0.1256139310E-01      0.3385775445E-01
          0                 4           1             5    7     1      -0.9147687986E-05       5    6    1        -0.5301826864E-03      0.1420468843E-02

    ------------------------------------------------
       NWT REQUIRED            4 OUTER ITERATIONS 
       AND A TOTAL OF          7 INNER ITERATIONS.
    ------------------------------------------------

 NO OUTPUT CONTROL FOR STRESS PERIOD   10   TIME STEP    2
 
 SOLVING FOR HEAD 
                                                   Max.-Head-Change                         Max.-Flux-Residual
  Residual-Control   Outer-Iter.   Inner-Iter.     Column Row Layer    Maximum-Head-Change  Column Row Layer    Maximum-Flux-Residual          L2-NORM 
          0                 1           2             5    7     1       0.3297996612E-01       5    7    1         0.1750788273E+01      0.4717210298E+01
          0                 2           2             5    7     1      -0.3208349211E-02       5    7    1        -0.1750949383E+00      0.4704355624E+00
          0                 3           2             5    7     1       0.2181823844E-03       5    7    1         0.1224023286E-01      0.3284506243E-01
          0                 4           1             5    7     1      -0.8968051743E-05       5    7    1        -0.5170472609E-03      0.1379895084E-02

    ------------------------------------------------
       NWT REQUIRED            4 OUTER ITERATIONS 
       AND A TOTAL OF          7 INNER ITERATIONS.
    ------------------------------------------------

 NO OUTPUT CONTROL FOR STRESS PERIOD   10   TIME STEP    3
 
 SOLVING FOR HEAD 
                                                   Max.-Head-Change                         Max.-Flux-Residual
  Residual-Control   Outer-Iter.   Inner-Iter.     Column Row Layer    Maximum-Head-Change  Column Row Layer    Maximum-Flux-Residual          L2-NORM 
          0                 1           2             5    7     1       0.3231185172E-01       5    7    1         0.1715348878E+01      0.4581679973E+01
          0                 2           2             5    7     1      -0.3143361278E-02       5    7    1        -0.1715510923E+00      0.4569443980E+00
          0                 3           2             5    7     1       0.2137569335E-03       5    7    1         0.1199216265E-01      0.3190716308E-01
          0                 4           1             5    7     1      -0.8791959243E-05       5    7    1        -0.5069011816E-03      0.1342249272E-02

    ------------------------------------------------
       NWT REQUIRED            4 OUTER ITERATIONS 
       AND A TOTAL OF          7 INNER ITERATIONS.
    ------------------------------------------------

 NO OUTPUT CONTROL FOR STRESS PERIOD   10   TIME STEP    4
 
 SOLVING FOR HEAD 
                                                   Max.-Head-Change                         Max.-Flux-Residual
  Residual-Control   Outer-Iter.   Inner-Iter.     Column Row Layer    Maximum-Head-Change  Column Row Layer    Maximum-Flux-Residual          L2-NORM 
          0                 1           2             4    7     1       0.3178005171E-01       5    7    1         0.1680590689E+01      0.4453789073E+01
          0                 2           2             4    7     1      -0.3091639035E-02       5    7    1        -0.1680753548E+00      0.4442052149E+00
          0                 3           2             4    7     1       0.2102317525E-03       5    7    1         0.1174886015E-01      0.3102137233E-01
          0                 4           1             4    7     1      -0.8654648972E-05       5    7    1        -0.4969500944E-03      0.1306813734E-02

    ------------------------------------------------
       NWT REQUIRED            4 OUTER ITERATIONS 
       AND A TOTAL OF          7 INNER ITERATIONS.
    ------------------------------------------------

 NO OUTPUT CONTROL FOR STRESS PERIOD   10   TIME STEP    5
 
 SOLVING FOR HEAD 
                                                   Max.-Head-Change                         Max.-Flux-Residual
  Residual-Control   Outer-Iter.   Inner-Iter.     Column Row Layer    Maximum-Head-Change  Column Row Layer    Maximum-Flux-Residual          L2-NORM 
          0                 1           2             4    7     1       0.3154305265E-01       4    7    1         0.1652512513E+01      0.4332909593E+01
          0                 2           2             4    7     1      -0.3068579305E-02       4    7    1        -0.1652678401E+00      0.4316884396E+00
          0                 3           2             4    7     1       0.2086614568E-03       4    7    1         0.1155233117E-01      0.3015022440E-01
          0                 4           1             4    7     1      -0.8592165539E-05       4    7    1        -0.4889120503E-03      0.1271516748E-02

    ------------------------------------------------
       NWT REQUIRED            4 OUTER ITERATIONS 
       AND A TOTAL OF          7 INNER ITERATIONS.
    ------------------------------------------------

 NO OUTPUT CONTROL FOR STRESS PERIOD   10   TIME STEP    6
 
 SOLVING FOR HEAD 
                                                   Max.-Head-Change                         Max.-Flux-Residual
  Residual-Control   Outer-Iter.   Inner-Iter.     Column Row Layer    Maximum-Head-Change  Column Row Layer    Maximum-Flux-Residual          L2-NORM 
          0                 1           2             4    7     1       0.3129094040E-01       4    7    1         0.1640193391E+01      0.4218855550E+01
          0                 2           2             4    7     1      -0.3044064398E-02       4    7    1        -0.1640360079E+00      0.4207886963E+00
          0                 3           2             4    7     1       0.2069920712E-03       4    7    1         0.1146610213E-01      0.2939154331E-01
          0                 4           1             4    7     1      -0.8525739216E-05       4    7    1        -0.4853852904E-03      0.1240776987E-02

    ------------------------------------------------
       NWT REQUIRED            4 OUTER ITERATIONS 
       AND A TOTAL OF          7 INNER ITERATIONS.
    ------------------------------------------------

 NO OUTPUT CONTROL FOR STRESS PERIOD   10   TIME STEP    7
 
 SOLVING FOR HEAD 
                                                   Max.-Head-Change                         Max.-Flux-Residual
  Residual-Control   Outer-Iter.   Inner-Iter.     Column Row Layer    Maximum-Head-Change  Column Row Layer    Maximum-Flux-Residual          L2-NORM 
          0                 1           2             4    7     1       0.3102511090E-01       4    7    1         0.1627081895E+01      0.4111001543E+01
          0                 2           2             4    7     1      -0.3018207498E-02       4    7    1        -0.1627249293E+00      0.4100326899E+00
          0                 3           2             4    7     1       0.2052313015E-03       4    7    1         0.1137432592E-01      0.2864259958E-01
          0                 4           1             4    7     1      -0.8455676243E-05       4    7    1        -0.4816316223E-03      0.1210643764E-02

    ------------------------------------------------
       NWT REQUIRED            4 OUTER ITERATIONS 
       AND A TOTAL OF          7 INNER ITERATIONS.
    ------------------------------------------------

 NO OUTPUT CONTROL FOR STRESS PERIOD   10   TIME STEP    8
 
 SOLVING FOR HEAD 
                                                   Max.-Head-Change                         Max.-Flux-Residual
  Residual-Control   Outer-Iter.   Inner-Iter.     Column Row Layer    Maximum-Head-Change  Column Row Layer    Maximum-Flux-Residual          L2-NORM 
          0                 1           2             4    7     1       0.3074703233E-01       4    7    1         0.1613259031E+01      0.4008547357E+01
          0                 2           2             4    7     1      -0.2991158973E-02       4    7    1        -0.1613427057E+00      0.3998111537E+00
          0                 3           2             4    7     1       0.2033893883E-03       4    7    1         0.1127756963E-01      0.2793081772E-01
          0                 4           1             4    7     1      -0.8382384746E-05       4    7    1        -0.4776742924E-03      0.1181989804E-02

    ------------------------------------------------
       NWT REQUIRED            4 OUTER ITERATIONS 
       AND A TOTAL OF          7 INNER ITERATIONS.
    ------------------------------------------------

 NO OUTPUT CONTROL FOR STRESS PERIOD   10   TIME STEP    9
 
 SOLVING FOR HEAD 
                                                   Max.-Head-Change                         Max.-Flux-Residual
  Residual-Control   Outer-Iter.   Inner-Iter.     Column Row Layer    Maximum-Head-Change  Column Row Layer    Maximum-Flux-Residual          L2-NORM 
          0                 1           2             4    7     1       0.3045806148E-01       4    7    1         0.1598800579E+01      0.3911064146E+01
          0                 2           2             4    7     1      -0.2963050810E-02       4    7    1        -0.1598969156E+00      0.3900824271E+00
          0                 3           2             4    7     1       0.2014753145E-03       4    7    1         0.1117636374E-01      0.2725272867E-01
          0                 4           1             4    7     1      -0.8306222082E-05       4    7    1        -0.4735349751E-03      0.1154376284E-02

    ------------------------------------------------
       NWT REQUIRED            4 OUTER ITERATIONS 
       AND A TOTAL OF          7 INNER ITERATIONS.
    ------------------------------------------------

 NO OUTPUT CONTROL FOR STRESS PERIOD   10   TIME STEP   10
 
 SOLVING FOR HEAD 
                                                   Max.-Head-Change                         Max.-Flux-Residual
  Residual-Control   Outer-Iter.   Inner-Iter.     Column Row Layer    Maximum-Head-Change  Column Row Layer    Maximum-Flux-Residual          L2-NORM 
          0                 1           2             4    7     1       0.1393651948E-01       4    7    1         0.7361349054E+00      0.2084911352E+01
          0                 2           2             4    7     1      -0.1355949873E-02       4    7    1        -0.7362997823E-01      0.2065976725E+00
          0                 3           1             4    7     1       0.9203829015E-04       4    7    1         0.5137708522E-02      0.1440927940E-01

    ------------------------------------------------
       NWT REQUIRED            3 OUTER ITERATIONS 
       AND A TOTAL OF          5 INNER ITERATIONS.
    ------------------------------------------------

 NO OUTPUT CONTROL FOR STRESS PERIOD   10   TIME STEP   11
 
 SOLVING FOR HEAD 
                                                   Max.-Head-Change                         Max.-Flux-Residual
  Residual-Control   Outer-Iter.   Inner-Iter.     Column Row Layer    Maximum-Head-Change  Column Row Layer    Maximum-Flux-Residual          L2-NORM 
          0                 1           2             4    7     1       0.2993786954E-01       4    7    1         0.1572320122E+01      0.3769388551E+01
          0                 2           2             4    7     1      -0.2912451637E-02       4    7    1        -0.1572489307E+00      0.3759516839E+00
          0                 3           2             4    7     1       0.1980296898E-03       4    7    1         0.1099100416E-01      0.2626910410E-01
          0                 4           1             4    7     1      -0.8169117313E-05       4    7    1        -0.4659537526E-03      0.1114716992E-02

    ------------------------------------------------
       NWT REQUIRED            4 OUTER ITERATIONS 
       AND A TOTAL OF          7 INNER ITERATIONS.
    ------------------------------------------------

 NO OUTPUT CONTROL FOR STRESS PERIOD   10   TIME STEP   12
 
 SOLVING FOR HEAD 
                                                   Max.-Head-Change                         Max.-Flux-Residual
  Residual-Control   Outer-Iter.   Inner-Iter.     Column Row Layer    Maximum-Head-Change  Column Row Layer    Maximum-Flux-Residual          L2-NORM 
          0                 1           2             4    7     1       0.2962993190E-01       4    7    1         0.1556726109E+01      0.3683071015E+01
          0                 2           2             4    7     1      -0.2882498265E-02       4    7    1        -0.1556895687E+00      0.3673308787E+00
          0                 3           2             4    7     1       0.1959899711E-03       4    7    1         0.1088184840E-01      0.2566780307E-01
          0                 4           1             4    7     1      -0.8087955463E-05       4    7    1        -0.4614892998E-03      0.1090433340E-02

    ------------------------------------------------
       NWT REQUIRED            4 OUTER ITERATIONS 
       AND A TOTAL OF          7 INNER ITERATIONS.
    ------------------------------------------------

 NO OUTPUT CONTROL FOR STRESS PERIOD   10   TIME STEP   13
 
 SOLVING FOR HEAD 
                                                   Max.-Head-Change                         Max.-Flux-Residual
  Residual-Control   Outer-Iter.   Inner-Iter.     Column Row Layer    Maximum-Head-Change  Column Row Layer    Maximum-Flux-Residual          L2-NORM 
          0                 1           2             4    7     1       0.2931494692E-01       4    7    1         0.1540710933E+01      0.3600567325E+01
          0                 2           2             4    7     1      -0.2851859301E-02       4    7    1        -0.1540880850E+00      0.3590863201E+00
          0                 3           2             4    7     1       0.1939035664E-03       4    7    1         0.1076974416E-01      0.2509240630E-01
          0                 4           1             4    7     1      -0.8004935109E-05       4    7    1        -0.4569042239E-03      0.1066822677E-02

    ------------------------------------------------
       NWT REQUIRED            4 OUTER ITERATIONS 
       AND A TOTAL OF          7 INNER ITERATIONS.
    ------------------------------------------------

 NO OUTPUT CONTROL FOR STRESS PERIOD   10   TIME STEP   14
 
 SOLVING FOR HEAD 
                                                   Max.-Head-Change                         Max.-Flux-Residual
  Residual-Control   Outer-Iter.   Inner-Iter.     Column Row Layer    Maximum-Head-Change  Column Row Layer    Maximum-Flux-Residual          L2-NORM 
          0                 1           2             4    7     1       0.2899389722E-01       4    7    1         0.1524330076E+01      0.3521595848E+01
          0                 2           2             4    7     1      -0.2820630331E-02       4    7    1        -0.1524500282E+00      0.3511925490E+00
          0                 3           2             4    7     1       0.1917769852E-03       4    7    1         0.1065507985E-01      0.2454162424E-01
          0                 4           1             4    7     1      -0.7920316438E-05       4    7    1        -0.4522144434E-03      0.1044725658E-02

    ------------------------------------------------
       NWT REQUIRED            4 OUTER ITERATIONS 
       AND A TOTAL OF          7 INNER ITERATIONS.
    ------------------------------------------------

 NO OUTPUT CONTROL FOR STRESS PERIOD   10   TIME STEP   15
 
 SOLVING FOR HEAD 
                                                   Max.-Head-Change                         Max.-Flux-Residual
  Residual-Control   Outer-Iter.   Inner-Iter.     Column Row Layer    Maximum-Head-Change  Column Row Layer    Maximum-Flux-Residual          L2-NORM 
          0                 1           2             4    7     1       0.2866783667E-01       4    7    1         0.1507641897E+01      0.3445931709E+01
          0                 2           2             4    7     1      -0.2788913878E-02       4    7    1        -0.1507812347E+00      0.3436279759E+00
          0                 3           2             4    7     1       0.1896172092E-03       4    7    1         0.1053826404E-01      0.2401374909E-01
          0                 4           1             4    7     1      -0.7834376447E-05       4    7    1        -0.4474366601E-03      0.1023264546E-02

    ------------------------------------------------
       NWT REQUIRED            4 OUTER ITERATIONS 
       AND A TOTAL OF          7 INNER ITERATIONS.
    ------------------------------------------------

 NO OUTPUT CONTROL FOR STRESS PERIOD   10   TIME STEP   16
 
 SOLVING FOR HEAD 
                                                   Max.-Head-Change                         Max.-Flux-Residual
  Residual-Control   Outer-Iter.   Inner-Iter.     Column Row Layer    Maximum-Head-Change  Column Row Layer    Maximum-Flux-Residual          L2-NORM 
          0                 1           2             4    7     1       0.2833747388E-01       4    7    1         0.1490686337E+01      0.3373343080E+01
          0                 2           2             4    7     1      -0.2756778873E-02       4    7    1        -0.1490856989E+00      0.3363694034E+00
          0                 3           2             4    7     1       0.1874289321E-03       4    7    1         0.1041957630E-01      0.2350696196E-01
          0                 4           1             4    7     1      -0.7747303025E-05       4    7    1        -0.4425823415E-03      0.1002720583E-02

    ------------------------------------------------
       NWT REQUIRED            4 OUTER ITERATIONS 
       AND A TOTAL OF          7 INNER ITERATIONS.
    ------------------------------------------------

 NO OUTPUT CONTROL FOR STRESS PERIOD   10   TIME STEP   17
 
 SOLVING FOR HEAD 
                                                   Max.-Head-Change                         Max.-Flux-Residual
  Residual-Control   Outer-Iter.   Inner-Iter.     Column Row Layer    Maximum-Head-Change  Column Row Layer    Maximum-Flux-Residual          L2-NORM 
          0                 1           2             4    7     1       0.2800359495E-01       4    7    1         0.1473507534E+01      0.3303646629E+01
          0                 2           2             4    7     1      -0.2724301789E-02       4    7    1        -0.1473678352E+00      0.3294005602E+00
          0                 3           2             4    7     1       0.1852173611E-03       4    7    1         0.1029932563E-01      0.2302155046E-01
          0                 4           1             4    7     1      -0.7659302481E-05       4    7    1        -0.4376640877E-03      0.9830248993E-03

    ------------------------------------------------
       NWT REQUIRED            4 OUTER ITERATIONS 
       AND A TOTAL OF          7 INNER ITERATIONS.
    ------------------------------------------------

 NO OUTPUT CONTROL FOR STRESS PERIOD   10   TIME STEP   18
 
 SOLVING FOR HEAD 
                                                   Max.-Head-Change                         Max.-Flux-Residual
  Residual-Control   Outer-Iter.   Inner-Iter.     Column Row Layer    Maximum-Head-Change  Column Row Layer    Maximum-Flux-Residual          L2-NORM 
          0                 1           2             4    7     1       0.2766692435E-01       4    7    1         0.1456146281E+01      0.3236654950E+01
          0                 2           2             4    7     1      -0.2691553103E-02       4    7    1        -0.1456317229E+00      0.3226976275E+00
          0                 3           2             4    7     1       0.1829872946E-03       4    7    1         0.1017779757E-01      0.2255241941E-01
          0                 4           1             4    7     1      -0.7570565811E-05       4    7    1        -0.4326935707E-03      0.9640228617E-03

    ------------------------------------------------
       NWT REQUIRED            4 OUTER ITERATIONS 
       AND A TOTAL OF          7 INNER ITERATIONS.
    ------------------------------------------------

 NO OUTPUT CONTROL FOR STRESS PERIOD   10   TIME STEP   19
 
 SOLVING FOR HEAD 
                                                   Max.-Head-Change                         Max.-Flux-Residual
  Residual-Control   Outer-Iter.   Inner-Iter.     Column Row Layer    Maximum-Head-Change  Column Row Layer    Maximum-Flux-Residual          L2-NORM 
          0                 1           2             4    7     1       0.2732813683E-01       4    7    1         0.1438640166E+01      0.3172215050E+01
          0                 2           2             4    7     1      -0.2658598454E-02       4    7    1        -0.1438811216E+00      0.3162501829E+00
          0                 3           2             4    7     1       0.1807432042E-03       4    7    1         0.1005525534E-01      0.2210214690E-01
          0                 4           1             4    7     1      -0.7481271347E-05       4    7    1        -0.4276815980E-03      0.9457347553E-03

    ------------------------------------------------
       NWT REQUIRED            4 OUTER ITERATIONS 
       AND A TOTAL OF          7 INNER ITERATIONS.
    ------------------------------------------------

 NO OUTPUT CONTROL FOR STRESS PERIOD   10   TIME STEP   20
 
 SOLVING FOR HEAD 
                                                   Max.-Head-Change                         Max.-Flux-Residual
  Residual-Control   Outer-Iter.   Inner-Iter.     Column Row Layer    Maximum-Head-Change  Column Row Layer    Maximum-Flux-Residual          L2-NORM 
          0                 1           2             4    7     1       0.2698798649E-01       4    7    1         0.1421031577E+01      0.3110167430E+01
          0                 2           2             4    7     1      -0.2625511200E-02       4    7    1        -0.1421202701E+00      0.3100399518E+00
          0                 3           2             4    7     1       0.1784900844E-03       4    7    1         0.9931995624E-02      0.2166831184E-01
          0                 4           1             4    7     1      -0.7391617455E-05       4    7    1        -0.4226402664E-03      0.9280513804E-03

    ------------------------------------------------
       NWT REQUIRED            4 OUTER ITERATIONS 
       AND A TOTAL OF          7 INNER ITERATIONS.
    ------------------------------------------------

 NO OUTPUT CONTROL FOR STRESS PERIOD   10   TIME STEP   21
 
 SOLVING FOR HEAD 
                                                   Max.-Head-Change                         Max.-Flux-Residual
  Residual-Control   Outer-Iter.   Inner-Iter.     Column Row Layer    Maximum-Head-Change  Column Row Layer    Maximum-Flux-Residual          L2-NORM 
          0                 1           2             4    7     1       0.2664663279E-01       4    7    1         0.1403330146E+01      0.3050357444E+01
          0                 2           2             4    7     1      -0.2592306856E-02       4    7    1        -0.1403501318E+00      0.3040528867E+00
          0                 3           2             4    7     1       0.1762289909E-03       4    7    1         0.9808085841E-02      0.2124992871E-01
          0                 4           1             4    7     1      -0.7301645926E-05       4    7    1        -0.4175723350E-03      0.9109441098E-03

    ------------------------------------------------
       NWT REQUIRED            4 OUTER ITERATIONS 
       AND A TOTAL OF          7 INNER ITERATIONS.
    ------------------------------------------------

 NO OUTPUT CONTROL FOR STRESS PERIOD   10   TIME STEP   22
 
 SOLVING FOR HEAD 
                                                   Max.-Head-Change                         Max.-Flux-Residual
  Residual-Control   Outer-Iter.   Inner-Iter.     Column Row Layer    Maximum-Head-Change  Column Row Layer    Maximum-Flux-Residual          L2-NORM 
          0                 1           2             4    7     1       0.2630502031E-01       4    7    1         0.1385588393E+01      0.2992687900E+01
          0                 2           2             4    7     1      -0.2559077307E-02       4    7    1        -0.1385759591E+00      0.2982792347E+00
          0                 3           2             4    7     1       0.1739661818E-03       4    7    1         0.9683893670E-02      0.2084646699E-01
          0                 4           1             4    7     1      -0.7211606933E-05       4    7    1        -0.4124928848E-03      0.8945653845E-03

    ------------------------------------------------
       NWT REQUIRED            4 OUTER ITERATIONS 
       AND A TOTAL OF          7 INNER ITERATIONS.
    ------------------------------------------------

 NO OUTPUT CONTROL FOR STRESS PERIOD   10   TIME STEP   23
 
 SOLVING FOR HEAD 
                                                   Max.-Head-Change                         Max.-Flux-Residual
  Residual-Control   Outer-Iter.   Inner-Iter.     Column Row Layer    Maximum-Head-Change  Column Row Layer    Maximum-Flux-Residual          L2-NORM 
          0                 1           2             4    7     1       0.2596348874E-01       4    7    1         0.1367825832E+01      0.2937021155E+01
          0                 2           2             4    7     1      -0.2525855600E-02       4    7    1        -0.1367997037E+00      0.2927048591E+00
          0                 3           2             4    7     1       0.1717039067E-03       4    7    1         0.9559555731E-02      0.2045702923E-01
          0                 4           1             4    7     1      -0.7121588547E-05       4    7    1        -0.4074074491E-03      0.8786956831E-03

    ------------------------------------------------
       NWT REQUIRED            4 OUTER ITERATIONS 
       AND A TOTAL OF          7 INNER ITERATIONS.
    ------------------------------------------------

 NO OUTPUT CONTROL FOR STRESS PERIOD   10   TIME STEP   24
 
 SOLVING FOR HEAD 
                                                   Max.-Head-Change                         Max.-Flux-Residual
  Residual-Control   Outer-Iter.   Inner-Iter.     Column Row Layer    Maximum-Head-Change  Column Row Layer    Maximum-Flux-Residual          L2-NORM 
          0                 1           2             4    7     1       0.2562248119E-01       4    7    1         0.1350067466E+01      0.2883253056E+01
          0                 2           2             4    7     1      -0.2492684841E-02       4    7    1        -0.1350238660E+00      0.2873193038E+00
          0                 3           2             4    7     1       0.1694451015E-03       4    7    1         0.9435247057E-02      0.2008067022E-01
          0                 4           1             4    7     1      -0.7031708314E-05       4    7    1        -0.4023232100E-03      0.8633311543E-03

    ------------------------------------------------
       NWT REQUIRED            4 OUTER ITERATIONS 
       AND A TOTAL OF          7 INNER ITERATIONS.
    ------------------------------------------------

 NO OUTPUT CONTROL FOR STRESS PERIOD   10   TIME STEP   25
 
 SOLVING FOR HEAD 
                                                   Max.-Head-Change                         Max.-Flux-Residual
  Residual-Control   Outer-Iter.   Inner-Iter.     Column Row Layer    Maximum-Head-Change  Column Row Layer    Maximum-Flux-Residual          L2-NORM 
          0                 1           2             4    7     1       0.7367063239E-02       4    7    1         0.3962614760E+00      0.1119862914E+01
          0                 2           2             4    7     1      -0.7169208070E-03       4    7    1        -0.3964262911E-01      0.1093073094E+00
          0                 3           1             4    7     1       0.4852278435E-04       4    7    1         0.2758593102E-02      0.7655565100E-02

    ------------------------------------------------
       NWT REQUIRED            3 OUTER ITERATIONS 
       AND A TOTAL OF          5 INNER ITERATIONS.
    ------------------------------------------------

 NO OUTPUT CONTROL FOR STRESS PERIOD   10   TIME STEP   26
 
 SOLVING FOR HEAD 
                                                   Max.-Head-Change                         Max.-Flux-Residual
  Residual-Control   Outer-Iter.   Inner-Iter.     Column Row Layer    Maximum-Head-Change  Column Row Layer    Maximum-Flux-Residual          L2-NORM 
          0                 1           2             4    7     1       0.2503795453E-01       4    7    1         0.1319142742E+01      0.2819074869E+01
          0                 2           2             4    7     1      -0.2435825907E-02       4    7    1        -0.1319313649E+00      0.2808967061E+00
          0                 3           2             4    7     1       0.1655732232E-03       4    7    1         0.9218772154E-02      0.1963198449E-01
          0                 4           1             4    7     1      -0.6877642372E-05       4    7    1        -0.3934693711E-03      0.8451835391E-03

    ------------------------------------------------
       NWT REQUIRED            4 OUTER ITERATIONS 
       AND A TOTAL OF          7 INNER ITERATIONS.
    ------------------------------------------------

 NO OUTPUT CONTROL FOR STRESS PERIOD   10   TIME STEP   27
 
 SOLVING FOR HEAD 
                                                   Max.-Head-Change                         Max.-Flux-Residual
  Residual-Control   Outer-Iter.   Inner-Iter.     Column Row Layer    Maximum-Head-Change  Column Row Layer    Maximum-Flux-Residual          L2-NORM 
          0                 1           2             4    7     1       0.2470805759E-01       4    7    1         0.1301939748E+01      0.2768949509E+01
          0                 2           2             4    7     1      -0.2403735882E-02       4    7    1        -0.1302110627E+00      0.2758735291E+00
          0                 3           2             4    7     1       0.1633880126E-03       4    7    1         0.9098350985E-02      0.1928070752E-01
          0                 4           1             4    7     1      -0.6790691100E-05       4    7    1        -0.3885441624E-03      0.8308122322E-03

    ------------------------------------------------
       NWT REQUIRED            4 OUTER ITERATIONS 
       AND A TOTAL OF          7 INNER ITERATIONS.
    ------------------------------------------------

 NO OUTPUT CONTROL FOR STRESS PERIOD   10   TIME STEP   28
 
 SOLVING FOR HEAD 
                                                   Max.-Head-Change                         Max.-Flux-Residual
  Residual-Control   Outer-Iter.   Inner-Iter.     Column Row Layer    Maximum-Head-Change  Column Row Layer    Maximum-Flux-Residual          L2-NORM 
          0                 1           2             4    7     1       0.2437943605E-01       4    7    1         0.1284785069E+01      0.2720439205E+01
          0                 2           2             4    7     1      -0.2371769901E-02       4    7    1        -0.1284955906E+00      0.2710118116E+00
          0                 3           2             4    7     1       0.1612112481E-03       4    7    1         0.8978267921E-02      0.1894086663E-01
          0                 4           1             4    7     1      -0.6704075080E-05       4    7    1        -0.3836327289E-03      0.8169723376E-03

    ------------------------------------------------
       NWT REQUIRED            4 OUTER ITERATIONS 
       AND A TOTAL OF          7 INNER ITERATIONS.
    ------------------------------------------------

 NO OUTPUT CONTROL FOR STRESS PERIOD   10   TIME STEP   29
 
 SOLVING FOR HEAD 
                                                   Max.-Head-Change                         Max.-Flux-Residual
  Residual-Control   Outer-Iter.   Inner-Iter.     Column Row Layer    Maximum-Head-Change  Column Row Layer    Maximum-Flux-Residual          L2-NORM 
          0                 1           2             4    7     1       0.2405239389E-01       4    7    1         0.1267696563E+01      0.2673454660E+01
          0                 2           2             4    7     1      -0.2339957534E-02       4    7    1        -0.1267867349E+00      0.2663023956E+00
          0                 3           2             4    7     1       0.1590449448E-03       4    7    1         0.8858648005E-02      0.1861154522E-01
          0                 4           1             4    7     1      -0.6617875707E-05       4    7    1        -0.3787402891E-03      0.8034471761E-03

    ------------------------------------------------
       NWT REQUIRED            4 OUTER ITERATIONS 
       AND A TOTAL OF          7 INNER ITERATIONS.
    ------------------------------------------------

 NO OUTPUT CONTROL FOR STRESS PERIOD   10   TIME STEP   30



 STREAM LISTING     PERIOD     10   STEP       30

 LAYER ROW COL. STREAM  RCH.  FLOW INTO     FLOW TO   FLOW OUT OF   OVRLND.     DIRECT     STREAM       STREAM     STREAM     STREAM   STREAMBED  STREAMBED
                SEG.NO.  NO.  STRM. RCH.    AQUIFER    STRM. RCH.    RUNOFF     PRECIP       ET          HEAD       DEPTH      WIDTH   CONDCTNC.   GRADIENT

   1    1    1     1     1    4.7000E+01  3.2684E-01   4.6673E+01  0.000E+00  0.000E+00  0.000E+00  1.09443E+03  1.380E+00  1.658E+01  7.462E-02  1.460E+00
   1    2    2     1     2    4.6673E+01  5.0637E-01   4.6167E+01  0.000E+00  0.000E+00  0.000E+00  1.08944E+03  1.377E+00  1.653E+01  1.157E-01  1.459E+00
   1    3    3     1     3    4.6167E+01  4.3206E-01   4.5735E+01  0.000E+00  0.000E+00  0.000E+00  1.08379E+03  1.374E+00  1.646E+01  9.878E-02  1.458E+00
   1    3    4     1     4    4.5735E+01  3.9802E-01   4.5337E+01  0.000E+00  0.000E+00  0.000E+00  1.07878E+03  1.371E+00  1.641E+01  9.105E-02  1.457E+00
   1    4    5     2     1    4.3337E+01  3.6469E-01   4.2972E+01  0.000E+00  0.000E+00  0.000E+00  1.07361E+03  1.676E+00  1.200E+01  7.800E-02  1.559E+00
   1    5    6     2     2    4.2972E+01  2.8008E-01   4.2692E+01  0.000E+00  0.000E+00  0.000E+00  1.06818E+03  1.668E+00  1.200E+01  6.000E-02  1.556E+00
   1    6    6     2     3    4.2692E+01  2.7969E-01   4.2412E+01  0.000E+00  0.000E+00  0.000E+00  1.06345E+03  1.661E+00  1.200E+01  6.000E-02  1.554E+00
   1    7    6     2     4    4.2412E+01  2.7930E-01   4.2133E+01  0.000E+00  0.000E+00  0.000E+00  1.05873E+03  1.655E+00  1.200E+01  6.000E-02  1.552E+00
   1    8    6     2     5    4.2133E+01  2.7890E-01   4.1854E+01  0.000E+00  0.000E+00  0.000E+00  1.05401E+03  1.648E+00  1.200E+01  6.000E-02  1.549E+00
   1    3    5     3     1    2.0000E+00  2.8252E-01   1.7175E+00  0.000E+00  0.000E+00  0.000E+00  1.07555E+03  1.909E+00  9.636E+00  7.227E-02  1.955E+00
   1    3    6     3     2    1.7175E+00  2.4905E-01   1.4684E+00  0.000E+00  0.000E+00  0.000E+00  1.07264E+03  1.727E+00  8.909E+00  6.682E-02  1.864E+00
   1    3    7     3     3    1.4684E+00  1.9718E-01   1.2712E+00  0.000E+00  0.000E+00  0.000E+00  1.06987E+03  1.555E+00  8.218E+00  5.547E-02  1.777E+00
   1    4    8     3     4    1.2712E+00  2.2567E-01   1.0456E+00  0.000E+00  0.000E+00  0.000E+00  1.06682E+03  1.364E+00  7.455E+00  6.709E-02  1.682E+00
   1    5    8     3     5    1.0456E+00  1.5790E-01   8.8768E-01  0.000E+00  0.000E+00  0.000E+00  1.06362E+03  1.164E+00  6.655E+00  4.991E-02  1.582E+00
   1    6    8     3     6    8.8768E-01  5.5980E-02   8.3170E-01  0.000E+00  0.000E+00  0.000E+00  1.06158E+03  1.036E+00  6.145E+00  1.844E-02  1.518E+00
   1    5   10     4     1    1.0000E+01  9.0919E-02   9.9091E+00  0.000E+00  0.000E+00  0.000E+00  1.07836E+03  6.368E-01  1.000E+01  2.500E-02  1.212E+00
   1    5    9     4     2    9.9091E+00  1.8158E-01   9.7275E+00  0.000E+00  0.000E+00  0.000E+00  1.07154E+03  6.315E-01  1.000E+01  5.000E-02  1.211E+00
   1    6    8     4     3    9.7275E+00  1.2689E-01   9.6006E+00  0.000E+00  0.000E+00  0.000E+00  1.06381E+03  6.256E-01  1.000E+01  3.500E-02  1.209E+00
   1    6    8     5     1    1.0432E+01  2.2686E-01   1.0205E+01  0.000E+00  0.000E+00  0.000E+00  1.05868E+03  6.790E-01  1.542E+01  6.166E-02  1.226E+00
   1    7    7     5     2    1.0205E+01  2.7894E-01   9.9265E+00  0.000E+00  0.000E+00  0.000E+00  1.05417E+03  6.732E-01  1.519E+01  7.594E-02  1.224E+00
   1    8    7     5     3    9.9265E+00  1.9221E-01   9.7343E+00  0.000E+00  0.000E+00  0.000E+00  1.04992E+03  6.676E-01  1.497E+01  5.241E-02  1.223E+00
   1    8    6     5     4    9.7343E+00  1.3577E-01   9.5985E+00  0.000E+00  0.000E+00  0.000E+00  1.04691E+03  6.637E-01  1.482E+01  3.706E-02  1.221E+00
   1    9    6     6     1    5.1453E+01  2.9278E-01   5.1160E+01  0.000E+00  0.000E+00  0.000E+00  1.04461E+03  1.880E+00  1.200E+01  6.000E-02  1.627E+00
   1   10    7     6     2    5.1160E+01  2.9239E-01   5.0867E+01  0.000E+00  0.000E+00  0.000E+00  1.04005E+03  1.873E+00  1.200E+01  6.000E-02  1.624E+00
   1   11    7     6     3    5.0867E+01  2.9200E-01   5.0575E+01  0.000E+00  0.000E+00  0.000E+00  1.03550E+03  1.867E+00  1.200E+01  6.000E-02  1.622E+00
   1   12    7     6     4    5.0575E+01  2.9162E-01   5.0284E+01  0.000E+00  0.000E+00  0.000E+00  1.03095E+03  1.860E+00  1.200E+01  6.000E-02  1.620E+00
   1   13    7     6     5    5.0284E+01  1.6271E-02   5.0268E+01  0.000E+00  0.000E+00  0.000E+00  1.02777E+03  1.857E+00  1.200E+01  2.400E-02  2.260E-01
   1   14    9     7     1    1.5000E+02  1.3336E+00   1.4867E+02  0.000E+00  0.000E+00  0.000E+00  1.03987E+03  2.288E+00  5.529E+01  5.593E-01  7.948E-01
   1   13    8     7     2    1.4867E+02  1.8255E+00   1.4684E+02  0.000E+00  0.000E+00  0.000E+00  1.03478E+03  2.279E+00  5.526E+01  6.148E-01  9.898E-01
   1   13    7     7     3    1.4684E+02  1.4531E+00   1.4539E+02  0.000E+00  0.000E+00  0.000E+00  1.02969E+03  2.271E+00  5.522E+01  5.585E-01  8.673E-01
   1   13    6     8     1    1.9566E+02  1.0412E+00   1.9461E+02  0.000E+00  0.000E+00  0.000E+00  1.02498E+03  3.109E+00  4.508E+01  4.594E-01  7.556E-01
   1   13    5     8     2    1.9461E+02  2.9729E-01   1.9432E+02  0.000E+00  0.000E+00  0.000E+00  1.01873E+03  3.105E+00  4.502E+01  4.588E-01  2.160E-01
   1   13    4     8     3    1.9432E+02 -2.0507E+00   1.9637E+02  0.000E+00  0.000E+00  0.000E+00  1.01249E+03  3.110E+00  4.510E+01  4.596E+00 -1.487E-01
   1   13    3     8     4    1.9637E+02 -3.3335E+00   1.9970E+02  0.000E+00  0.000E+00  0.000E+00  1.00625E+03  3.126E+00  4.533E+01  4.619E+00 -2.406E-01
   1   13    2     8     5    1.9970E+02 -2.3314E+00   2.0203E+02  0.000E+00  0.000E+00  0.000E+00  1.00002E+03  3.143E+00  4.557E+01  4.644E+00 -1.673E-01
   1   13    1     8     6    2.0203E+02 -1.5641E+00   2.0360E+02  0.000E+00  0.000E+00  0.000E+00  9.95029E+02  3.154E+00  4.574E+01  2.796E+00 -1.864E-01





UNSATURATED ZONE PACKAGE VOLUMETRIC BUDGET FOR  TIME STEP    30 STRESS PERIOD   10
  ------------------------------------------------------------------------------



     CUMULATIVE VOLUMES      L**3       RATES FOR THIS TIME STEP      L**3/T
     ------------------                 ------------------------

           IN:                                      IN:
           ---                                      ---
        INFILTRATION =   189890979.6343          INFILTRATION =           0.8479

          OUT:                                     OUT:
          ----                                     ----
              UZF ET =    93052610.1651                UZF ET =           2.7391
        UZF RECHARGE =     7961625.8044          UZF RECHARGE =           0.1058

            IN - OUT =    88876743.6648              IN - OUT =          -1.9970

          STORAGE:                                 STORAGE:
          --------                                 --------
      STORAGE CHANGE =    88938953.9926        STORAGE CHANGE =          -1.9970

 PERCENT DISCREPANCY IS DIFFERENCE BETWEEN IN-OUT MINUS CHANGE IN STORAGE
 DIVIDED BY THE AVERAGE OF IN AND OUT TIMES 100

 PERCENT DISCREPANCY =          -0.01     PERCENT DISCREPANCY =           0.00






1
  VOLUMETRIC BUDGET FOR ENTIRE MODEL AT END OF TIME STEP   30, STRESS PERIOD  10
  ------------------------------------------------------------------------------

     CUMULATIVE VOLUMES      L**3       RATES FOR THIS TIME STEP      L**3/T
     ------------------                 ------------------------

           IN:                                      IN:
           ---                                      ---
               AWU WELLS =   169772608.0000                 AWU WELLS =       3.9410E-04
      DIVERSION SEGMENTS =           0.0000        DIVERSION SEGMENTS =           0.0000
           GW IRRIGATION =           0.0000             GW IRRIGATION =           0.0000
           SW IRRIGATION =           0.0000             SW IRRIGATION =           0.0000
        SYSTEM LOSSES GW =           0.0000          SYSTEM LOSSES GW =           0.0000
        SYSTEM LOSSES SW =           0.0000          SYSTEM LOSSES SW =           0.0000

                TOTAL IN =   169772608.0000                  TOTAL IN =       3.9410E-04

          OUT:                                     OUT:
          ----                                     ----
               AWU WELLS =           0.0000                 AWU WELLS =           0.0000
      DIVERSION SEGMENTS =           0.0000        DIVERSION SEGMENTS =           0.0000
           GW IRRIGATION =   169772608.0000             GW IRRIGATION =       3.9410E-04
           SW IRRIGATION =           0.0000             SW IRRIGATION =           0.0000
        SYSTEM LOSSES GW =           0.0000          SYSTEM LOSSES GW =           0.0000
        SYSTEM LOSSES SW =           0.0000          SYSTEM LOSSES SW =           0.0000

               TOTAL OUT =   169772608.0000                 TOTAL OUT =       3.9410E-04

                IN - OUT =           0.0000                  IN - OUT =           0.0000

     PERCENT DISCREPANCY =           0.00         PERCENT DISCREPANCY =           0.00



1
  VOLUMETRIC BUDGET FOR ENTIRE MODEL AT END OF TIME STEP   30, STRESS PERIOD  10
  ------------------------------------------------------------------------------

     CUMULATIVE VOLUMES      L**3       RATES FOR THIS TIME STEP      L**3/T
     ------------------                 ------------------------

           IN:                                      IN:
           ---                                      ---
             STORAGE     =   256562416.0000               STORAGE     =           5.3992
       CONSTANT HEAD     =           0.0000         CONSTANT HEAD     =           0.0000
     HEAD DEP BOUNDS     =     6782305.5000       HEAD DEP BOUNDS     =           0.2856
      STREAM LEAKAGE     =   308315392.0000        STREAM LEAKAGE     =          12.6832
        UZF RECHARGE     =     7961625.0000          UZF RECHARGE     =           0.1058
               GW ET     =           0.0000                 GW ET     =           0.0000
     SURFACE LEAKAGE     =           0.0000       SURFACE LEAKAGE     =           0.0000
           AWU WELLS     =           0.0000             AWU WELLS     =           0.0000

                TOTAL IN =   579621696.0000                  TOTAL IN =          18.4738

          OUT:                                     OUT:
          ----                                     ----
             STORAGE     =   134798800.0000               STORAGE     =           7.3848
       CONSTANT HEAD     =           0.0000         CONSTANT HEAD     =           0.0000
     HEAD DEP BOUNDS     =     6888530.0000       HEAD DEP BOUNDS     =           0.2884
      STREAM LEAKAGE     =   213310992.0000        STREAM LEAKAGE     =           9.2797
        UZF RECHARGE     =           0.0000          UZF RECHARGE     =           0.0000
               GW ET     =    54855596.0000                 GW ET     =           1.5205
     SURFACE LEAKAGE     =           0.0000       SURFACE LEAKAGE     =           0.0000
           AWU WELLS     =   169772608.0000             AWU WELLS     =       3.9410E-04

               TOTAL OUT =   579626496.0000                 TOTAL OUT =          18.4738

                IN - OUT =       -4800.0000                  IN - OUT =       1.9073E-05

     PERCENT DISCREPANCY =          -0.00         PERCENT DISCREPANCY =           0.00






         TIME SUMMARY AT END OF TIME STEP   30 IN STRESS PERIOD   10
                    SECONDS     MINUTES      HOURS       DAYS        YEARS
                    -----------------------------------------------------------
   TIME STEP LENGTH  87600.      1460.0      24.333      1.0139     2.77588E-03
 STRESS PERIOD TIME 2.62800E+06  43800.      730.00      30.417     8.32763E-02
         TOTAL TIME 2.37384E+07 3.95640E+05  6594.0      274.75     0.75222    
1
1
                            STRESS PERIOD NO.   11, LENGTH =   2628000.    
                            -----------------------------------------------

                              NUMBER OF TIME STEPS =    30

                               MULTIPLIER FOR DELT =     1.000

                            INITIAL TIME STEP SIZE =   87600.00    

 REUSING NON-PARAMETER GHB CELLS FROM LAST STRESS PERIOD

      2 GHB CELLS

 REUSING STREAM SEGMENT DATA FROM LAST STRESS PERIOD



            AREAL INFILTRATION RATE
 READING ON UNIT   19 WITH FORMAT: (10F4.0)            

            1           2           3           4           5           6           7           8           9          10
 ........................................................................................................................
   1   1.0000E-10  2.0000E-10   0.000       0.000       0.000       0.000       0.000       0.000       0.000       0.000    
   2   2.0000E-10  1.0000E-10  2.0000E-10   0.000       0.000      8.0000E-10  8.0000E-10  5.0000E-10   0.000       0.000    
   3    0.000      5.0000E-10  1.0000E-10  1.0000E-10  8.0000E-10  8.0000E-10  5.0000E-10  5.0000E-10   0.000       0.000    
   4   8.0000E-10  5.0000E-10  1.0000E-10  1.0000E-10  1.0000E-10  1.0000E-10  1.0000E-10  1.0000E-10  2.0000E-10   0.000    
   5   8.0000E-10  5.0000E-10  1.0000E-10  1.0000E-10  1.0000E-10  1.0000E-10  1.0000E-10  1.0000E-10  1.0000E-10  1.0000E-10
   6   8.0000E-10  5.0000E-10  5.0000E-10  2.0000E-10  2.0000E-10  1.0000E-10  1.0000E-10  1.0000E-10  1.0000E-10  5.0000E-10
   7   8.0000E-10  5.0000E-10  5.0000E-10  2.0000E-10  2.0000E-10  1.0000E-10  1.0000E-10  2.0000E-10  2.0000E-10   0.000    
   8    0.000      5.0000E-10  5.0000E-10  2.0000E-10  2.0000E-10  1.0000E-10  1.0000E-10  2.0000E-10  5.0000E-10   0.000    
   9    0.000      5.0000E-10  5.0000E-10  2.0000E-10  2.0000E-10  1.0000E-10  1.0000E-10  2.0000E-10  5.0000E-10   0.000    
  10    0.000      5.0000E-10  5.0000E-10  2.0000E-10  2.0000E-10  1.0000E-10  1.0000E-10  2.0000E-10  5.0000E-10  8.0000E-10
  11    0.000      1.0000E-10  1.0000E-10  1.0000E-10  1.0000E-10  1.0000E-10  1.0000E-10  2.0000E-10  5.0000E-10   0.000    
  12   1.0000E-10  1.0000E-10  1.0000E-10  1.0000E-10  1.0000E-10  1.0000E-10  1.0000E-10  1.0000E-10  2.0000E-10   0.000    
  13   1.0000E-10  1.0000E-10  2.0000E-10  2.0000E-10  2.0000E-10  2.0000E-10  2.0000E-10  1.0000E-10  1.0000E-10   0.000    
  14    0.000      2.0000E-10  5.0000E-10  5.0000E-10  5.0000E-10  5.0000E-10  5.0000E-10  2.0000E-10  1.0000E-10   0.000    
  15    0.000       0.000      8.0000E-10  8.0000E-10  8.0000E-10  8.0000E-10   0.000       0.000       0.000       0.000    

                  ET RATE =  1.000000E-09

 USING ET EXTINCTION DEPTH FROM PREVIOUS STRESS PERIOD. CURRENT PERIOD IS:      11

 USING EXTINCTION WATER CONTENT FROM PREVIOUS STRESS PERIOD. CURRENT PERIOD IS:      11

 PROCESSING AWU STRESS PERIOD DATA

 READING AWU STRESS PERIOD DATA

 READING IRRIGATION WELL

 END PROCESSING AWU STRESS PERIOD DATA OPTIONS
 
 SOLVING FOR HEAD 
                                                   Max.-Head-Change                         Max.-Flux-Residual
  Residual-Control   Outer-Iter.   Inner-Iter.     Column Row Layer    Maximum-Head-Change  Column Row Layer    Maximum-Flux-Residual          L2-NORM 
          0                 1           2             4    7     1       0.2372751037E-01       4    7    1         0.1250706426E+01      0.2719882183E+01
          0                 2           2             4    7     1      -0.2308049423E-02       4    7    1        -0.1250712939E+00      0.2707538693E+00
          0                 3           2             4    7     1       0.1571695144E-03       4    7    1         0.8754988188E-02      0.1893460469E-01
          0                 4           1             4    7     1      -0.6253922364E-05       4    7    1        -0.3580795405E-03      0.7779009433E-03

    ------------------------------------------------
       NWT REQUIRED            4 OUTER ITERATIONS 
       AND A TOTAL OF          7 INNER ITERATIONS.
    ------------------------------------------------

 NO OUTPUT CONTROL FOR STRESS PERIOD   11   TIME STEP    1
 
 SOLVING FOR HEAD 
                                                   Max.-Head-Change                         Max.-Flux-Residual
  Residual-Control   Outer-Iter.   Inner-Iter.     Column Row Layer    Maximum-Head-Change  Column Row Layer    Maximum-Flux-Residual          L2-NORM 
          0                 1           2             4    7     1       0.2340449681E-01       4    7    1         0.1233802487E+01      0.2629316319E+01
          0                 2           2             4    7     1      -0.2276628903E-02       4    7    1        -0.1233808931E+00      0.2621596253E+00
          0                 3           2             4    7     1       0.1550298950E-03       4    7    1         0.8636660158E-02      0.1835837606E-01
          0                 4           1             4    7     1      -0.6168785043E-05       4    7    1        -0.3532399264E-03      0.7557479075E-03

    ------------------------------------------------
       NWT REQUIRED            4 OUTER ITERATIONS 
       AND A TOTAL OF          7 INNER ITERATIONS.
    ------------------------------------------------

 NO OUTPUT CONTROL FOR STRESS PERIOD   11   TIME STEP    2
 
 SOLVING FOR HEAD 
                                                   Max.-Head-Change                         Max.-Flux-Residual
  Residual-Control   Outer-Iter.   Inner-Iter.     Column Row Layer    Maximum-Head-Change  Column Row Layer    Maximum-Flux-Residual          L2-NORM 
          0                 1           2             4    7     1       0.2308363084E-01       4    7    1         0.1216997579E+01      0.2583045216E+01
          0                 2           2             4    7     1      -0.2245417275E-02       4    7    1        -0.1217003946E+00      0.2575299122E+00
          0                 3           2             4    7     1       0.1529044998E-03       4    7    1         0.8519025282E-02      0.1803461207E-01
          0                 4           1             4    7     1      -0.6084213229E-05       4    7    1        -0.3484286458E-03      0.7427273186E-03

    ------------------------------------------------
       NWT REQUIRED            4 OUTER ITERATIONS 
       AND A TOTAL OF          7 INNER ITERATIONS.
    ------------------------------------------------

 NO OUTPUT CONTROL FOR STRESS PERIOD   11   TIME STEP    3
 
 SOLVING FOR HEAD 
                                                   Max.-Head-Change                         Max.-Flux-Residual
  Residual-Control   Outer-Iter.   Inner-Iter.     Column Row Layer    Maximum-Head-Change  Column Row Layer    Maximum-Flux-Residual          L2-NORM 
          0                 1           2             4    7     1       0.2276540973E-01       4    7    1         0.1200318860E+01      0.2538325854E+01
          0                 2           2             4    7     1      -0.2214462910E-02       4    7    1        -0.1200325143E+00      0.2530543936E+00
          0                 3           2             4    7     1       0.1507966234E-03       4    7    1         0.8402273684E-02      0.1772162078E-01
          0                 4           1             4    7     1      -0.6000338857E-05       4    7    1        -0.3436534882E-03      0.7298257129E-03

    ------------------------------------------------
       NWT REQUIRED            4 OUTER ITERATIONS 
       AND A TOTAL OF          7 INNER ITERATIONS.
    ------------------------------------------------

 NO OUTPUT CONTROL FOR STRESS PERIOD   11   TIME STEP    4
 
 SOLVING FOR HEAD 
                                                   Max.-Head-Change                         Max.-Flux-Residual
  Residual-Control   Outer-Iter.   Inner-Iter.     Column Row Layer    Maximum-Head-Change  Column Row Layer    Maximum-Flux-Residual          L2-NORM 
          0                 1           2             4    7     1       0.2244988772E-01       4    7    1         0.1183769995E+01      0.2495076527E+01
          0                 2           2             4    7     1      -0.2183771086E-02       4    7    1        -0.1183776188E+00      0.2487254065E+00
          0                 3           2             4    7     1       0.1487066252E-03       4    7    1         0.8286431038E-02      0.1741879888E-01
          0                 4           1             4    7     1      -0.5917176090E-05       4    7    1        -0.3389155222E-03      0.7174773492E-03

    ------------------------------------------------
       NWT REQUIRED            4 OUTER ITERATIONS 
       AND A TOTAL OF          7 INNER ITERATIONS.
    ------------------------------------------------

 NO OUTPUT CONTROL FOR STRESS PERIOD   11   TIME STEP    5
 
 SOLVING FOR HEAD 
                                                   Max.-Head-Change                         Max.-Flux-Residual
  Residual-Control   Outer-Iter.   Inner-Iter.     Column Row Layer    Maximum-Head-Change  Column Row Layer    Maximum-Flux-Residual          L2-NORM 
          0                 1           2             4    7     1       0.2213737231E-01       4    7    1         0.1167368558E+01      0.2453196473E+01
          0                 2           2             4    7     1      -0.2153371716E-02       4    7    1        -0.1167374657E+00      0.2445334277E+00
          0                 3           2             4    7     1       0.1466365421E-03       4    7    1         0.8171620344E-02      0.1712556613E-01
          0                 4           1             4    7     1      -0.5834805630E-05       4    7    1        -0.3342197640E-03      0.7055164895E-03

    ------------------------------------------------
       NWT REQUIRED            4 OUTER ITERATIONS 
       AND A TOTAL OF          7 INNER ITERATIONS.
    ------------------------------------------------

 NO OUTPUT CONTROL FOR STRESS PERIOD   11   TIME STEP    6
 
 SOLVING FOR HEAD 
                                                   Max.-Head-Change                         Max.-Flux-Residual
  Residual-Control   Outer-Iter.   Inner-Iter.     Column Row Layer    Maximum-Head-Change  Column Row Layer    Maximum-Flux-Residual          L2-NORM 
          0                 1           2             4    7     1       0.2182774174E-01       4    7    1         0.1151108366E+01      0.2412613917E+01
          0                 2           2             4    7     1      -0.2123252955E-02       4    7    1        -0.1151114366E+00      0.2404710274E+00
          0                 3           2             4    7     1       0.1445855677E-03       4    7    1         0.8057798367E-02      0.1684145723E-01
          0                 4           1             4    7     1      -0.5753195128E-05       4    7    1        -0.3295644292E-03      0.6939987562E-03

    ------------------------------------------------
       NWT REQUIRED            4 OUTER ITERATIONS 
       AND A TOTAL OF          7 INNER ITERATIONS.
    ------------------------------------------------

 NO OUTPUT CONTROL FOR STRESS PERIOD   11   TIME STEP    7
 
 SOLVING FOR HEAD 
                                                   Max.-Head-Change                         Max.-Flux-Residual
  Residual-Control   Outer-Iter.   Inner-Iter.     Column Row Layer    Maximum-Head-Change  Column Row Layer    Maximum-Flux-Residual          L2-NORM 
          0                 1           2             4    7     1       0.2152155073E-01       4    7    1         0.1135020001E+01      0.2373269515E+01
          0                 2           2             4    7     1      -0.2093468764E-02       4    7    1        -0.1135025897E+00      0.2365322952E+00
          0                 3           2             4    7     1       0.1425573764E-03       4    7    1         0.7945179129E-02      0.1656598351E-01
          0                 4           1             4    7     1      -0.5672492062E-05       4    7    1        -0.3249583144E-03      0.6826801860E-03

    ------------------------------------------------
       NWT REQUIRED            4 OUTER ITERATIONS 
       AND A TOTAL OF          7 INNER ITERATIONS.
    ------------------------------------------------

 NO OUTPUT CONTROL FOR STRESS PERIOD   11   TIME STEP    8
 
 SOLVING FOR HEAD 
                                                   Max.-Head-Change                         Max.-Flux-Residual
  Residual-Control   Outer-Iter.   Inner-Iter.     Column Row Layer    Maximum-Head-Change  Column Row Layer    Maximum-Flux-Residual          L2-NORM 
          0                 1           2             4    7     1       0.2121850004E-01       4    7    1         0.1119087963E+01      0.2335087381E+01
          0                 2           2             4    7     1      -0.2063990038E-02       4    7    1        -0.1119093755E+00      0.2327096904E+00
          0                 3           2             4    7     1       0.1405499861E-03       4    7    1         0.7833654184E-02      0.1629852114E-01
          0                 4           1             4    7     1      -0.5592615957E-05       4    7    1        -0.3203969377E-03      0.6717509164E-03

    ------------------------------------------------
       NWT REQUIRED            4 OUTER ITERATIONS 
       AND A TOTAL OF          7 INNER ITERATIONS.
    ------------------------------------------------

 NO OUTPUT CONTROL FOR STRESS PERIOD   11   TIME STEP    9
 
 SOLVING FOR HEAD 
                                                   Max.-Head-Change                         Max.-Flux-Residual
  Residual-Control   Outer-Iter.   Inner-Iter.     Column Row Layer    Maximum-Head-Change  Column Row Layer    Maximum-Flux-Residual          L2-NORM 
          0                 1           2             4    7     1       0.2091897341E-01       4    7    1         0.1103333631E+01      0.2298017140E+01
          0                 2           2             4    7     1      -0.2034854103E-02       4    7    1        -0.1103339315E+00      0.2289981618E+00
          0                 3           2             4    7     1       0.1385659387E-03       4    7    1         0.7723373170E-02      0.1603886415E-01
          0                 4           1             4    7     1      -0.5513668932E-05       4    7    1        -0.3158864326E-03      0.6611616468E-03

    ------------------------------------------------
       NWT REQUIRED            4 OUTER ITERATIONS 
       AND A TOTAL OF          7 INNER ITERATIONS.
    ------------------------------------------------

 NO OUTPUT CONTROL FOR STRESS PERIOD   11   TIME STEP   10
 
 SOLVING FOR HEAD 
                                                   Max.-Head-Change                         Max.-Flux-Residual
  Residual-Control   Outer-Iter.   Inner-Iter.     Column Row Layer    Maximum-Head-Change  Column Row Layer    Maximum-Flux-Residual          L2-NORM 
          0                 1           2             4    7     1       0.2062305731E-01       4    7    1         0.1087762153E+01      0.2261999752E+01
          0                 2           2             4    7     1      -0.2006069372E-02       4    7    1        -0.1087767728E+00      0.2253917506E+00
          0                 3           2             4    7     1       0.1366058063E-03       4    7    1         0.7614372101E-02      0.1578632930E-01
          0                 4           1             4    7     1      -0.5435672976E-05       4    7    1        -0.3114282697E-03      0.6508283090E-03

    ------------------------------------------------
       NWT REQUIRED            4 OUTER ITERATIONS 
       AND A TOTAL OF          7 INNER ITERATIONS.
    ------------------------------------------------

 NO OUTPUT CONTROL FOR STRESS PERIOD   11   TIME STEP   11
 
 SOLVING FOR HEAD 
                                                   Max.-Head-Change                         Max.-Flux-Residual
  Residual-Control   Outer-Iter.   Inner-Iter.     Column Row Layer    Maximum-Head-Change  Column Row Layer    Maximum-Flux-Residual          L2-NORM 
          0                 1           2             4    7     1       0.2033069421E-01       4    7    1         0.1072370635E+01      0.2226994929E+01
          0                 2           2             4    7     1      -0.1977630250E-02       4    7    1        -0.1072376099E+00      0.2218864406E+00
          0                 3           2             4    7     1       0.1346692094E-03       4    7    1         0.7506630764E-02      0.1554150157E-01
          0                 4           1             4    7     1      -0.5358614389E-05       4    7    1        -0.3070216562E-03      0.6408111242E-03

    ------------------------------------------------
       NWT REQUIRED            4 OUTER ITERATIONS 
       AND A TOTAL OF          7 INNER ITERATIONS.
    ------------------------------------------------

 NO OUTPUT CONTROL FOR STRESS PERIOD   11   TIME STEP   12
 
 SOLVING FOR HEAD 
                                                   Max.-Head-Change                         Max.-Flux-Residual
  Residual-Control   Outer-Iter.   Inner-Iter.     Column Row Layer    Maximum-Head-Change  Column Row Layer    Maximum-Flux-Residual          L2-NORM 
          0                 1           2             4    7     1       0.2004208261E-01       4    7    1         0.1057170856E+01      0.2192939511E+01
          0                 2           2             4    7     1      -0.1949556528E-02       4    7    1        -0.1057176209E+00      0.2184919128E+00
          0                 3           2             4    7     1       0.1327574945E-03       4    7    1         0.7400231588E-02      0.1530388118E-01
          0                 4           1             4    7     1      -0.5282545324E-05       4    7    1        -0.3026699180E-03      0.6311264047E-03

    ------------------------------------------------
       NWT REQUIRED            4 OUTER ITERATIONS 
       AND A TOTAL OF          7 INNER ITERATIONS.
    ------------------------------------------------

 NO OUTPUT CONTROL FOR STRESS PERIOD   11   TIME STEP   13
 
 SOLVING FOR HEAD 
                                                   Max.-Head-Change                         Max.-Flux-Residual
  Residual-Control   Outer-Iter.   Inner-Iter.     Column Row Layer    Maximum-Head-Change  Column Row Layer    Maximum-Flux-Residual          L2-NORM 
          0                 1           2             4    7     1       0.1975714060E-01       4    7    1         0.1042158325E+01      0.2159787252E+01
          0                 2           2             4    7     1      -0.1921838790E-02       4    7    1        -0.1042163566E+00      0.2151540002E+00
          0                 3           2             4    7     1       0.1308700211E-03       4    7    1         0.7295143155E-02      0.1507031312E-01
          0                 4           1             4    7     1      -0.5207441258E-05       4    7    1        -0.2983718041E-03      0.6215962974E-03

    ------------------------------------------------
       NWT REQUIRED            4 OUTER ITERATIONS 
       AND A TOTAL OF          7 INNER ITERATIONS.
    ------------------------------------------------

 NO OUTPUT CONTROL FOR STRESS PERIOD   11   TIME STEP   14
 
 SOLVING FOR HEAD 
                                                   Max.-Head-Change                         Max.-Flux-Residual
  Residual-Control   Outer-Iter.   Inner-Iter.     Column Row Layer    Maximum-Head-Change  Column Row Layer    Maximum-Flux-Residual          L2-NORM 
          0                 1           2             4    7     1       0.1947618093E-01       4    7    1         0.1027351017E+01      0.2127506993E+01
          0                 2           2             4    7     1      -0.1894508909E-02       4    7    1        -0.1027356147E+00      0.2119200433E+00
          0                 3           1             4    7     1       0.1290089594E-03       4    7    1         0.7191491273E-02      0.1484406425E-01
          0                 4           1             4    7     1      -0.5133387962E-05       4    7    1        -0.2941324217E-03      0.6123806571E-03

    ------------------------------------------------
       NWT REQUIRED            4 OUTER ITERATIONS 
       AND A TOTAL OF          6 INNER ITERATIONS.
    ------------------------------------------------

 NO OUTPUT CONTROL FOR STRESS PERIOD   11   TIME STEP   15
 
 SOLVING FOR HEAD 
                                                   Max.-Head-Change                         Max.-Flux-Residual
  Residual-Control   Outer-Iter.   Inner-Iter.     Column Row Layer    Maximum-Head-Change  Column Row Layer    Maximum-Flux-Residual          L2-NORM 
          0                 1           2             4    7     1       0.1919896009E-01       4    7    1         0.1012735553E+01      0.2096064126E+01
          0                 2           2             4    7     1      -0.1867542714E-02       4    7    1        -0.1012740571E+00      0.2087699710E+00
          0                 3           1             4    7     1       0.1271726635E-03       4    7    1         0.7089182313E-02      0.1462361719E-01
          0                 4           1             4    7     1      -0.5060320158E-05       4    7    1        -0.2899479889E-03      0.6033434426E-03

    ------------------------------------------------
       NWT REQUIRED            4 OUTER ITERATIONS 
       AND A TOTAL OF          6 INNER ITERATIONS.
    ------------------------------------------------

 NO OUTPUT CONTROL FOR STRESS PERIOD   11   TIME STEP   16
 
 SOLVING FOR HEAD 
                                                   Max.-Head-Change                         Max.-Flux-Residual
  Residual-Control   Outer-Iter.   Inner-Iter.     Column Row Layer    Maximum-Head-Change  Column Row Layer    Maximum-Flux-Residual          L2-NORM 
          0                 1           2             4    7     1       0.1892564089E-01       4    7    1         0.9983214716E+00      0.2065430675E+01
          0                 2           2             4    7     1      -0.1840956043E-02       4    7    1        -0.9983263776E-01      0.2057010920E+00
          0                 3           1             4    7     1       0.1253622112E-03       4    7    1         0.6988283010E-02      0.1440894088E-01
          0                 4           1             4    7     1      -0.4988280559E-05       4    7    1        -0.2858211938E-03      0.5946003029E-03

    ------------------------------------------------
       NWT REQUIRED            4 OUTER ITERATIONS 
       AND A TOTAL OF          6 INNER ITERATIONS.
    ------------------------------------------------

 NO OUTPUT CONTROL FOR STRESS PERIOD   11   TIME STEP   17
 
 SOLVING FOR HEAD 
                                                   Max.-Head-Change                         Max.-Flux-Residual
  Residual-Control   Outer-Iter.   Inner-Iter.     Column Row Layer    Maximum-Head-Change  Column Row Layer    Maximum-Flux-Residual          L2-NORM 
          0                 1           2             4    7     1       0.1865610390E-01       4    7    1         0.9841024535E+00      0.2035558684E+01
          0                 2           2             4    7     1      -0.1814737279E-02       4    7    1        -0.9841072487E-01      0.2027090261E+00
          0                 3           1             4    7     1       0.1235768124E-03       4    7    1         0.6888749179E-02      0.1419977211E-01
          0                 4           1             4    7     1      -0.4917237850E-05       4    7    1        -0.2817502570E-03      0.5861264320E-03

    ------------------------------------------------
       NWT REQUIRED            4 OUTER ITERATIONS 
       AND A TOTAL OF          6 INNER ITERATIONS.
    ------------------------------------------------

 NO OUTPUT CONTROL FOR STRESS PERIOD   11   TIME STEP   18
 
 SOLVING FOR HEAD 
                                                   Max.-Head-Change                         Max.-Flux-Residual
  Residual-Control   Outer-Iter.   Inner-Iter.     Column Row Layer    Maximum-Head-Change  Column Row Layer    Maximum-Flux-Residual          L2-NORM 
          0                 1           2             4    7     1       0.1839062886E-01       4    7    1         0.9700944534E+00      0.2006423293E+01
          0                 2           2             4    7     1      -0.1788913634E-02       4    7    1        -0.9700991388E-01      0.1997911295E+00
          0                 3           1             4    7     1       0.1218183196E-03       4    7    1         0.6790692473E-02      0.1399547635E-01
          0                 4           1             4    7     1      -0.4847265942E-05       4    7    1        -0.2777397340E-03      0.5777513870E-03

    ------------------------------------------------
       NWT REQUIRED            4 OUTER ITERATIONS 
       AND A TOTAL OF          6 INNER ITERATIONS.
    ------------------------------------------------

 NO OUTPUT CONTROL FOR STRESS PERIOD   11   TIME STEP   19
 
 SOLVING FOR HEAD 
                                                   Max.-Head-Change                         Max.-Flux-Residual
  Residual-Control   Outer-Iter.   Inner-Iter.     Column Row Layer    Maximum-Head-Change  Column Row Layer    Maximum-Flux-Residual          L2-NORM 
          0                 1           2             4    7     1       0.1812907780E-01       4    7    1         0.9562898357E+00      0.1978005964E+01
          0                 2           2             4    7     1      -0.1763471686E-02       4    7    1        -0.9562944125E-01      0.1969444818E+00
          0                 3           1             4    7     1       0.1200858191E-03       4    7    1         0.6694059467E-02      0.1379633737E-01
          0                 4           1             4    7     1      -0.4778328226E-05       4    7    1        -0.2737874381E-03      0.5696292837E-03

    ------------------------------------------------
       NWT REQUIRED            4 OUTER ITERATIONS 
       AND A TOTAL OF          6 INNER ITERATIONS.
    ------------------------------------------------

 NO OUTPUT CONTROL FOR STRESS PERIOD   11   TIME STEP   20
 
 SOLVING FOR HEAD 
                                                   Max.-Head-Change                         Max.-Flux-Residual
  Residual-Control   Outer-Iter.   Inner-Iter.     Column Row Layer    Maximum-Head-Change  Column Row Layer    Maximum-Flux-Residual          L2-NORM 
          0                 1           2             4    7     1       0.1787144604E-01       4    7    1         0.9426888245E+00      0.1950274425E+01
          0                 2           2             4    7     1      -0.1738410981E-02       4    7    1        -0.9426932937E-01      0.1942084695E+00
          0                 3           1             4    7     1       0.1183792794E-03       4    7    1         0.6598851679E-02      0.1360489904E-01
          0                 4           1             4    7     1      -0.4710423549E-05       4    7    1        -0.2698934397E-03      0.5618366875E-03

    ------------------------------------------------
       NWT REQUIRED            4 OUTER ITERATIONS 
       AND A TOTAL OF          6 INNER ITERATIONS.
    ------------------------------------------------

 NO OUTPUT CONTROL FOR STRESS PERIOD   11   TIME STEP   21
 
 SOLVING FOR HEAD 
                                                   Max.-Head-Change                         Max.-Flux-Residual
  Residual-Control   Outer-Iter.   Inner-Iter.     Column Row Layer    Maximum-Head-Change  Column Row Layer    Maximum-Flux-Residual          L2-NORM 
          0                 1           2             4    7     1       0.1761771837E-01       4    7    1         0.9292911777E+00      0.1923156781E+01
          0                 2           2             4    7     1      -0.1713730041E-02       4    7    1        -0.9292955410E-01      0.1914480777E+00
          0                 3           1             4    7     1       0.1166986005E-03       4    7    1         0.6505067473E-02      0.1341181352E-01
          0                 4           1             4    7     1      -0.4643547653E-05       4    7    1        -0.2660576540E-03      0.5539877505E-03

    ------------------------------------------------
       NWT REQUIRED            4 OUTER ITERATIONS 
       AND A TOTAL OF          6 INNER ITERATIONS.
    ------------------------------------------------

 NO OUTPUT CONTROL FOR STRESS PERIOD   11   TIME STEP   22
 
 SOLVING FOR HEAD 
                                                   Max.-Head-Change                         Max.-Flux-Residual
  Residual-Control   Outer-Iter.   Inner-Iter.     Column Row Layer    Maximum-Head-Change  Column Row Layer    Maximum-Flux-Residual          L2-NORM 
          0                 1           2             4    7     1       0.1736801540E-01       4    7    1         0.9161034911E+00      0.1896680617E+01
          0                 2           2             4    7     1      -0.1689440595E-02       4    7    1        -0.9161077497E-01      0.1887946029E+00
          0                 3           1             4    7     1       0.1150445809E-03       4    7    1         0.6412752997E-02      0.1322617295E-01
          0                 4           1             4    7     1      -0.4577732773E-05       4    7    1        -0.2622819920E-03      0.5464238594E-03

    ------------------------------------------------
       NWT REQUIRED            4 OUTER ITERATIONS 
       AND A TOTAL OF          6 INNER ITERATIONS.
    ------------------------------------------------

 NO OUTPUT CONTROL FOR STRESS PERIOD   11   TIME STEP   23
 
 SOLVING FOR HEAD 
                                                   Max.-Head-Change                         Max.-Flux-Residual
  Residual-Control   Outer-Iter.   Inner-Iter.     Column Row Layer    Maximum-Head-Change  Column Row Layer    Maximum-Flux-Residual          L2-NORM 
          0                 1           2             4    7     1       0.1712217624E-01       4    7    1         0.9031172528E+00      0.1870820856E+01
          0                 2           2             4    7     1      -0.1665526996E-02       4    7    1        -0.9031214084E-01      0.1862026141E+00
          0                 3           1             4    7     1       0.1134161548E-03       4    7    1         0.6321848667E-02      0.1304485878E-01
          0                 4           1             4    7     1      -0.4512935851E-05       4    7    1        -0.2585639827E-03      0.5390333241E-03

    ------------------------------------------------
       NWT REQUIRED            4 OUTER ITERATIONS 
       AND A TOTAL OF          6 INNER ITERATIONS.
    ------------------------------------------------

 NO OUTPUT CONTROL FOR STRESS PERIOD   11   TIME STEP   24
 
 SOLVING FOR HEAD 
                                                   Max.-Head-Change                         Max.-Flux-Residual
  Residual-Control   Outer-Iter.   Inner-Iter.     Column Row Layer    Maximum-Head-Change  Column Row Layer    Maximum-Flux-Residual          L2-NORM 
          0                 1           2             4    7     1       0.1688017669E-01       4    7    1         0.8903314993E+00      0.1845556586E+01
          0                 2           2             4    7     1      -0.1641986888E-02       4    7    1        -0.8903355534E-01      0.1836702054E+00
          0                 3           1             4    7     1       0.1118131624E-03       4    7    1         0.6232347746E-02      0.1286767891E-01
          0                 4           1             4    7     1      -0.4449151707E-05       4    7    1        -0.2549033945E-03      0.5318303354E-03

    ------------------------------------------------
       NWT REQUIRED            4 OUTER ITERATIONS 
       AND A TOTAL OF          6 INNER ITERATIONS.
    ------------------------------------------------

 NO OUTPUT CONTROL FOR STRESS PERIOD   11   TIME STEP   25
 
 SOLVING FOR HEAD 
                                                   Max.-Head-Change                         Max.-Flux-Residual
  Residual-Control   Outer-Iter.   Inner-Iter.     Column Row Layer    Maximum-Head-Change  Column Row Layer    Maximum-Flux-Residual          L2-NORM 
          0                 1           2             4    7     1       0.1664185253E-01       4    7    1         0.8777375896E+00      0.1820861750E+01
          0                 2           2             4    7     1      -0.1618804298E-02       4    7    1        -0.8777415439E-01      0.1811945589E+00
          0                 3           1             4    7     1       0.1102345155E-03       4    7    1         0.6144189718E-02      0.1269441912E-01
          0                 4           1             4    7     1      -0.4386336016E-05       4    7    1        -0.2512977421E-03      0.5247008192E-03

    ------------------------------------------------
       NWT REQUIRED            4 OUTER ITERATIONS 
       AND A TOTAL OF          6 INNER ITERATIONS.
    ------------------------------------------------

 NO OUTPUT CONTROL FOR STRESS PERIOD   11   TIME STEP   26
 
 SOLVING FOR HEAD 
                                                   Max.-Head-Change                         Max.-Flux-Residual
  Residual-Control   Outer-Iter.   Inner-Iter.     Column Row Layer    Maximum-Head-Change  Column Row Layer    Maximum-Flux-Residual          L2-NORM 
          0                 1           2             4    7     1       0.1640758623E-01       4    7    1         0.8653565460E+00      0.1796731040E+01
          0                 2           2             4    7     1      -0.1596016430E-02       4    7    1        -0.8653604026E-01      0.1787753197E+00
          0                 3           1             4    7     1       0.1086827473E-03       4    7    1         0.6057521784E-02      0.1252525179E-01
          0                 4           1             4    7     1      -0.4324589630E-05       4    7    1        -0.2477530104E-03      0.5179204213E-03

    ------------------------------------------------
       NWT REQUIRED            4 OUTER ITERATIONS 
       AND A TOTAL OF          6 INNER ITERATIONS.
    ------------------------------------------------

 NO OUTPUT CONTROL FOR STRESS PERIOD   11   TIME STEP   27
 
 SOLVING FOR HEAD 
                                                   Max.-Head-Change                         Max.-Flux-Residual
  Residual-Control   Outer-Iter.   Inner-Iter.     Column Row Layer    Maximum-Head-Change  Column Row Layer    Maximum-Flux-Residual          L2-NORM 
          0                 1           2             4    7     1       0.1617732795E-01       4    7    1         0.8531860574E+00      0.1773135571E+01
          0                 2           2             4    7     1      -0.1573618436E-02       4    7    1        -0.8531898181E-01      0.1764094974E+00
          0                 3           1             4    7     1       0.1071575282E-03       4    7    1         0.5972327747E-02      0.1235970786E-01
          0                 4           1             4    7     1      -0.4263899424E-05       4    7    1        -0.2442685479E-03      0.5111134931E-03

    ------------------------------------------------
       NWT REQUIRED            4 OUTER ITERATIONS 
       AND A TOTAL OF          6 INNER ITERATIONS.
    ------------------------------------------------

 NO OUTPUT CONTROL FOR STRESS PERIOD   11   TIME STEP   28
 
 SOLVING FOR HEAD 
                                                   Max.-Head-Change                         Max.-Flux-Residual
  Residual-Control   Outer-Iter.   Inner-Iter.     Column Row Layer    Maximum-Head-Change  Column Row Layer    Maximum-Flux-Residual          L2-NORM 
          0                 1           2             4    7     1       0.1595048572E-01       4    7    1         0.8411939912E+00      0.1750048709E+01
          0                 2           2             4    7     1      -0.1551552733E-02       4    7    1        -0.8411976576E-01      0.1740944784E+00
          0                 3           1             4    7     1       0.1056549369E-03       4    7    1         0.5888382681E-02      0.1219774221E-01
          0                 4           1             4    7     1      -0.4204109747E-05       4    7    1        -0.2408351841E-03      0.5044064782E-03

    ------------------------------------------------
       NWT REQUIRED            4 OUTER ITERATIONS 
       AND A TOTAL OF          6 INNER ITERATIONS.
    ------------------------------------------------

 NO OUTPUT CONTROL FOR STRESS PERIOD   11   TIME STEP   29
 
 SOLVING FOR HEAD 
                                                   Max.-Head-Change                         Max.-Flux-Residual
  Residual-Control   Outer-Iter.   Inner-Iter.     Column Row Layer    Maximum-Head-Change  Column Row Layer    Maximum-Flux-Residual          L2-NORM 
          0                 1           2             4    7     1       0.1572758187E-01       4    7    1         0.8294087234E+00      0.1727477655E+01
          0                 2           2             4    7     1      -0.1529870131E-02       4    7    1        -0.8294122974E-01      0.1718309704E+00
          0                 3           1             4    7     1       0.1041784341E-03       4    7    1         0.5805885230E-02      0.1203938981E-01
          0                 4           1             4    7     1      -0.4145358981E-05       4    7    1        -0.2374610581E-03      0.4980827148E-03

    ------------------------------------------------
       NWT REQUIRED            4 OUTER ITERATIONS 
       AND A TOTAL OF          6 INNER ITERATIONS.
    ------------------------------------------------

 NO OUTPUT CONTROL FOR STRESS PERIOD   11   TIME STEP   30



 STREAM LISTING     PERIOD     11   STEP       30

 LAYER ROW COL. STREAM  RCH.  FLOW INTO     FLOW TO   FLOW OUT OF   OVRLND.     DIRECT     STREAM       STREAM     STREAM     STREAM   STREAMBED  STREAMBED
                SEG.NO.  NO.  STRM. RCH.    AQUIFER    STRM. RCH.    RUNOFF     PRECIP       ET          HEAD       DEPTH      WIDTH   CONDCTNC.   GRADIENT

   1    1    1     1     1    3.5000E+01  2.8629E-01   3.4714E+01  0.000E+00  0.000E+00  0.000E+00  1.09434E+03  1.292E+00  1.482E+01  6.670E-02  1.431E+00
   1    2    2     1     2    3.4714E+01  4.4325E-01   3.4270E+01  0.000E+00  0.000E+00  0.000E+00  1.08935E+03  1.289E+00  1.476E+01  1.033E-01  1.430E+00
   1    3    3     1     3    3.4270E+01  3.7790E-01   3.3893E+01  0.000E+00  0.000E+00  0.000E+00  1.08370E+03  1.286E+00  1.470E+01  8.817E-02  1.429E+00
   1    3    4     1     4    3.3893E+01  3.4789E-01   3.3545E+01  0.000E+00  0.000E+00  0.000E+00  1.07869E+03  1.283E+00  1.464E+01  8.123E-02  1.428E+00
   1    4    5     2     1    3.1545E+01  3.4194E-01   3.1203E+01  0.000E+00  0.000E+00  0.000E+00  1.07332E+03  1.384E+00  1.200E+01  7.800E-02  1.461E+00
   1    5    6     2     2    3.1203E+01  2.6255E-01   3.0940E+01  0.000E+00  0.000E+00  0.000E+00  1.06789E+03  1.376E+00  1.200E+01  6.000E-02  1.459E+00
   1    6    6     2     3    3.0940E+01  2.6213E-01   3.0678E+01  0.000E+00  0.000E+00  0.000E+00  1.06316E+03  1.369E+00  1.200E+01  6.000E-02  1.456E+00
   1    7    6     2     4    3.0678E+01  2.6171E-01   3.0416E+01  0.000E+00  0.000E+00  0.000E+00  1.05844E+03  1.362E+00  1.200E+01  6.000E-02  1.454E+00
   1    8    6     2     5    3.0416E+01  2.6129E-01   3.0155E+01  0.000E+00  0.000E+00  0.000E+00  1.05371E+03  1.355E+00  1.200E+01  6.000E-02  1.452E+00
   1    3    5     3     1    2.0000E+00  2.8252E-01   1.7175E+00  0.000E+00  0.000E+00  0.000E+00  1.07555E+03  1.909E+00  9.636E+00  7.227E-02  1.955E+00
   1    3    6     3     2    1.7175E+00  2.4905E-01   1.4684E+00  0.000E+00  0.000E+00  0.000E+00  1.07264E+03  1.727E+00  8.909E+00  6.682E-02  1.864E+00
   1    3    7     3     3    1.4684E+00  1.9718E-01   1.2712E+00  0.000E+00  0.000E+00  0.000E+00  1.06987E+03  1.555E+00  8.218E+00  5.547E-02  1.777E+00
   1    4    8     3     4    1.2712E+00  2.2567E-01   1.0456E+00  0.000E+00  0.000E+00  0.000E+00  1.06682E+03  1.364E+00  7.455E+00  6.709E-02  1.682E+00
   1    5    8     3     5    1.0456E+00  1.5790E-01   8.8768E-01  0.000E+00  0.000E+00  0.000E+00  1.06362E+03  1.164E+00  6.655E+00  4.991E-02  1.582E+00
   1    6    8     3     6    8.8768E-01  5.5980E-02   8.3170E-01  0.000E+00  0.000E+00  0.000E+00  1.06158E+03  1.036E+00  6.145E+00  1.844E-02  1.518E+00
   1    5   10     4     1    1.0000E+01  9.0919E-02   9.9091E+00  0.000E+00  0.000E+00  0.000E+00  1.07836E+03  6.368E-01  1.000E+01  2.500E-02  1.212E+00
   1    5    9     4     2    9.9091E+00  1.8158E-01   9.7275E+00  0.000E+00  0.000E+00  0.000E+00  1.07154E+03  6.315E-01  1.000E+01  5.000E-02  1.211E+00
   1    6    8     4     3    9.7275E+00  1.2689E-01   9.6006E+00  0.000E+00  0.000E+00  0.000E+00  1.06381E+03  6.256E-01  1.000E+01  3.500E-02  1.209E+00
   1    6    8     5     1    1.0432E+01  2.2686E-01   1.0205E+01  0.000E+00  0.000E+00  0.000E+00  1.05868E+03  6.790E-01  1.542E+01  6.166E-02  1.226E+00
   1    7    7     5     2    1.0205E+01  2.7894E-01   9.9265E+00  0.000E+00  0.000E+00  0.000E+00  1.05417E+03  6.732E-01  1.519E+01  7.594E-02  1.224E+00
   1    8    7     5     3    9.9265E+00  1.9221E-01   9.7343E+00  0.000E+00  0.000E+00  0.000E+00  1.04992E+03  6.676E-01  1.497E+01  5.241E-02  1.223E+00
   1    8    6     5     4    9.7343E+00  1.3577E-01   9.5985E+00  0.000E+00  0.000E+00  0.000E+00  1.04691E+03  6.637E-01  1.482E+01  3.706E-02  1.221E+00
   1    9    6     6     1    3.9754E+01  2.7657E-01   3.9477E+01  0.000E+00  0.000E+00  0.000E+00  1.04434E+03  1.609E+00  1.200E+01  6.000E-02  1.536E+00
   1   10    7     6     2    3.9477E+01  2.7616E-01   3.9201E+01  0.000E+00  0.000E+00  0.000E+00  1.03978E+03  1.603E+00  1.200E+01  6.000E-02  1.534E+00
   1   11    7     6     3    3.9201E+01  2.7576E-01   3.8925E+01  0.000E+00  0.000E+00  0.000E+00  1.03523E+03  1.596E+00  1.200E+01  6.000E-02  1.532E+00
   1   12    7     6     4    3.8925E+01  2.7535E-01   3.8650E+01  0.000E+00  0.000E+00  0.000E+00  1.03068E+03  1.589E+00  1.200E+01  6.000E-02  1.530E+00
   1   13    7     6     5    3.8650E+01  9.1788E-03   3.8641E+01  0.000E+00  0.000E+00  0.000E+00  1.02749E+03  1.586E+00  1.200E+01  2.400E-02  1.275E-01
   1   14    9     7     1    1.5000E+02  1.3336E+00   1.4867E+02  0.000E+00  0.000E+00  0.000E+00  1.03987E+03  2.288E+00  5.529E+01  5.593E-01  7.948E-01
   1   13    8     7     2    1.4867E+02  1.8236E+00   1.4684E+02  0.000E+00  0.000E+00  0.000E+00  1.03478E+03  2.279E+00  5.526E+01  6.148E-01  9.888E-01
   1   13    7     7     3    1.4684E+02  1.4395E+00   1.4540E+02  0.000E+00  0.000E+00  0.000E+00  1.02969E+03  2.271E+00  5.522E+01  5.585E-01  8.592E-01
   1   13    6     8     1    1.8404E+02  9.6203E-01   1.8308E+02  0.000E+00  0.000E+00  0.000E+00  1.02491E+03  3.038E+00  4.406E+01  4.490E-01  7.143E-01
   1   13    5     8     2    1.8308E+02  2.0205E-01   1.8288E+02  0.000E+00  0.000E+00  0.000E+00  1.01866E+03  3.035E+00  4.400E+01  4.484E-01  1.502E-01
   1   13    4     8     3    1.8288E+02 -2.4381E+00   1.8532E+02  0.000E+00  0.000E+00  0.000E+00  1.01242E+03  3.042E+00  4.411E+01  4.494E+00 -1.808E-01
   1   13    3     8     4    1.8532E+02 -3.6576E+00   1.8898E+02  0.000E+00  0.000E+00  0.000E+00  1.00619E+03  3.061E+00  4.438E+01  4.522E+00 -2.696E-01
   1   13    2     8     5    1.8898E+02 -2.5524E+00   1.9153E+02  0.000E+00  0.000E+00  0.000E+00  9.99954E+02  3.079E+00  4.465E+01  4.550E+00 -1.870E-01
   1   13    1     8     6    1.9153E+02 -1.9071E+00   1.9344E+02  0.000E+00  0.000E+00  0.000E+00  9.94968E+02  3.093E+00  4.485E+01  2.742E+00 -2.318E-01





UNSATURATED ZONE PACKAGE VOLUMETRIC BUDGET FOR  TIME STEP    30 STRESS PERIOD   11
  ------------------------------------------------------------------------------



     CUMULATIVE VOLUMES      L**3       RATES FOR THIS TIME STEP      L**3/T
     ------------------                 ------------------------

           IN:                                      IN:
           ---                                      ---
        INFILTRATION =   192118209.6343          INFILTRATION =           0.8475

          OUT:                                     OUT:
          ----                                     ----
              UZF ET =    93584297.5937                UZF ET =           0.2246
        UZF RECHARGE =     8200207.1893          UZF RECHARGE =           0.0870

            IN - OUT =    90333704.8513              IN - OUT =           0.5359

          STORAGE:                                 STORAGE:
          --------                                 --------
      STORAGE CHANGE =    90395915.1516        STORAGE CHANGE =           0.5359

 PERCENT DISCREPANCY IS DIFFERENCE BETWEEN IN-OUT MINUS CHANGE IN STORAGE
 DIVIDED BY THE AVERAGE OF IN AND OUT TIMES 100

 PERCENT DISCREPANCY =          -0.01     PERCENT DISCREPANCY =           0.00






1
  VOLUMETRIC BUDGET FOR ENTIRE MODEL AT END OF TIME STEP   30, STRESS PERIOD  11
  ------------------------------------------------------------------------------

     CUMULATIVE VOLUMES      L**3       RATES FOR THIS TIME STEP      L**3/T
     ------------------                 ------------------------

           IN:                                      IN:
           ---                                      ---
               AWU WELLS =   169772608.0000                 AWU WELLS =           0.0000
      DIVERSION SEGMENTS =           0.0000        DIVERSION SEGMENTS =           0.0000
           GW IRRIGATION =           0.0000             GW IRRIGATION =           0.0000
           SW IRRIGATION =           0.0000             SW IRRIGATION =           0.0000
        SYSTEM LOSSES GW =           0.0000          SYSTEM LOSSES GW =           0.0000
        SYSTEM LOSSES SW =           0.0000          SYSTEM LOSSES SW =           0.0000

                TOTAL IN =   169772608.0000                  TOTAL IN =           0.0000

          OUT:                                     OUT:
          ----                                     ----
               AWU WELLS =           0.0000                 AWU WELLS =           0.0000
      DIVERSION SEGMENTS =           0.0000        DIVERSION SEGMENTS =           0.0000
           GW IRRIGATION =   169772608.0000             GW IRRIGATION =           0.0000
           SW IRRIGATION =           0.0000             SW IRRIGATION =           0.0000
        SYSTEM LOSSES GW =           0.0000          SYSTEM LOSSES GW =           0.0000
        SYSTEM LOSSES SW =           0.0000          SYSTEM LOSSES SW =           0.0000

               TOTAL OUT =   169772608.0000                 TOTAL OUT =           0.0000

                IN - OUT =           0.0000                  IN - OUT =           0.0000

     PERCENT DISCREPANCY =           0.00         PERCENT DISCREPANCY =           0.00



1
  VOLUMETRIC BUDGET FOR ENTIRE MODEL AT END OF TIME STEP   30, STRESS PERIOD  11
  ------------------------------------------------------------------------------

     CUMULATIVE VOLUMES      L**3       RATES FOR THIS TIME STEP      L**3/T
     ------------------                 ------------------------

           IN:                                      IN:
           ---                                      ---
             STORAGE     =   268902304.0000               STORAGE     =           3.9359
       CONSTANT HEAD     =           0.0000         CONSTANT HEAD     =           0.0000
     HEAD DEP BOUNDS     =     7532875.5000       HEAD DEP BOUNDS     =           0.2856
      STREAM LEAKAGE     =   340299488.0000        STREAM LEAKAGE     =          12.1202
        UZF RECHARGE     =     8200207.5000          UZF RECHARGE     =       8.7013E-02
               GW ET     =           0.0000                 GW ET     =           0.0000
     SURFACE LEAKAGE     =           0.0000       SURFACE LEAKAGE     =           0.0000
           AWU WELLS     =           0.0000             AWU WELLS     =           0.0000

                TOTAL IN =   624934848.0000                  TOTAL IN =          16.4287

          OUT:                                     OUT:
          ----                                     ----
             STORAGE     =   151728640.0000               STORAGE     =           5.4806
       CONSTANT HEAD     =           0.0000         CONSTANT HEAD     =           0.0000
     HEAD DEP BOUNDS     =     7651249.5000       HEAD DEP BOUNDS     =           0.2912
      STREAM LEAKAGE     =   240663984.0000        STREAM LEAKAGE     =          10.5552
        UZF RECHARGE     =           0.0000          UZF RECHARGE     =           0.0000
               GW ET     =    55123092.0000                 GW ET     =           0.1017
     SURFACE LEAKAGE     =           0.0000       SURFACE LEAKAGE     =           0.0000
           AWU WELLS     =   169772608.0000             AWU WELLS     =           0.0000

               TOTAL OUT =   624939584.0000                 TOTAL OUT =          16.4287

                IN - OUT =       -4736.0000                  IN - OUT =       1.5259E-05

     PERCENT DISCREPANCY =          -0.00         PERCENT DISCREPANCY =           0.00






         TIME SUMMARY AT END OF TIME STEP   30 IN STRESS PERIOD   11
                    SECONDS     MINUTES      HOURS       DAYS        YEARS
                    -----------------------------------------------------------
   TIME STEP LENGTH  87600.      1460.0      24.333      1.0139     2.77588E-03
 STRESS PERIOD TIME 2.62800E+06  43800.      730.00      30.417     8.32763E-02
         TOTAL TIME 2.63664E+07 4.39440E+05  7324.0      305.17     0.83550    
1
1
                            STRESS PERIOD NO.   12, LENGTH =   2628000.    
                            -----------------------------------------------

                              NUMBER OF TIME STEPS =    30

                               MULTIPLIER FOR DELT =     1.000

                            INITIAL TIME STEP SIZE =   87600.00    

 REUSING NON-PARAMETER GHB CELLS FROM LAST STRESS PERIOD

      2 GHB CELLS

 REUSING STREAM SEGMENT DATA FROM LAST STRESS PERIOD



            AREAL INFILTRATION RATE
 READING ON UNIT   19 WITH FORMAT: (10F4.0)            

            1           2           3           4           5           6           7           8           9          10
 ........................................................................................................................
   1   1.0000E-10  2.0000E-10   0.000       0.000       0.000       0.000       0.000       0.000       0.000       0.000    
   2   2.0000E-10  1.0000E-10  2.0000E-10   0.000       0.000      8.0000E-10  8.0000E-10  5.0000E-10   0.000       0.000    
   3    0.000      5.0000E-10  1.0000E-10  1.0000E-10  8.0000E-10  8.0000E-10  5.0000E-10  5.0000E-10   0.000       0.000    
   4   8.0000E-10  5.0000E-10  1.0000E-10  1.0000E-10  1.0000E-10  1.0000E-10  1.0000E-10  1.0000E-10  2.0000E-10   0.000    
   5   8.0000E-10  5.0000E-10  1.0000E-10  1.0000E-10  1.0000E-10  1.0000E-10  1.0000E-10  1.0000E-10  1.0000E-10  1.0000E-10
   6   8.0000E-10  5.0000E-10  5.0000E-10  2.0000E-10  2.0000E-10  1.0000E-10  1.0000E-10  1.0000E-10  1.0000E-10  5.0000E-10
   7   8.0000E-10  5.0000E-10  5.0000E-10  2.0000E-10  2.0000E-10  1.0000E-10  1.0000E-10  2.0000E-10  2.0000E-10   0.000    
   8    0.000      5.0000E-10  5.0000E-10  2.0000E-10  2.0000E-10  1.0000E-10  1.0000E-10  2.0000E-10  5.0000E-10   0.000    
   9    0.000      5.0000E-10  5.0000E-10  2.0000E-10  2.0000E-10  1.0000E-10  1.0000E-10  2.0000E-10  5.0000E-10   0.000    
  10    0.000      5.0000E-10  5.0000E-10  2.0000E-10  2.0000E-10  1.0000E-10  1.0000E-10  2.0000E-10  5.0000E-10  8.0000E-10
  11    0.000      1.0000E-10  1.0000E-10  1.0000E-10  1.0000E-10  1.0000E-10  1.0000E-10  2.0000E-10  5.0000E-10   0.000    
  12   1.0000E-10  1.0000E-10  1.0000E-10  1.0000E-10  1.0000E-10  1.0000E-10  1.0000E-10  1.0000E-10  2.0000E-10   0.000    
  13   1.0000E-10  1.0000E-10  2.0000E-10  2.0000E-10  2.0000E-10  2.0000E-10  2.0000E-10  1.0000E-10  1.0000E-10   0.000    
  14    0.000      2.0000E-10  5.0000E-10  5.0000E-10  5.0000E-10  5.0000E-10  5.0000E-10  2.0000E-10  1.0000E-10   0.000    
  15    0.000       0.000      8.0000E-10  8.0000E-10  8.0000E-10  8.0000E-10   0.000       0.000       0.000       0.000    

                  ET RATE =  1.000000E-10

 USING ET EXTINCTION DEPTH FROM PREVIOUS STRESS PERIOD. CURRENT PERIOD IS:      12

 USING EXTINCTION WATER CONTENT FROM PREVIOUS STRESS PERIOD. CURRENT PERIOD IS:      12

 PROCESSING AWU STRESS PERIOD DATA

 READING AWU STRESS PERIOD DATA

 READING IRRIGATION WELL

 END PROCESSING AWU STRESS PERIOD DATA OPTIONS
 
 SOLVING FOR HEAD 
                                                   Max.-Head-Change                         Max.-Flux-Residual
  Residual-Control   Outer-Iter.   Inner-Iter.     Column Row Layer    Maximum-Head-Change  Column Row Layer    Maximum-Flux-Residual          L2-NORM 
          0                 1           2             4    7     1       0.1550824672E-01       4    7    1         0.8178130368E+00      0.1712919721E+01
          0                 2           2             4    7     1      -0.1508534667E-02       4    7    1        -0.8178165209E-01      0.1705168366E+00
          0                 3           1             4    7     1       0.1027255689E-03       4    7    1         0.5724714823E-02      0.1194575602E-01
          0                 4           1             4    7     1      -0.4087547427E-05       4    7    1        -0.2341411741E-03      0.4941194951E-03

    ------------------------------------------------
       NWT REQUIRED            4 OUTER ITERATIONS 
       AND A TOTAL OF          6 INNER ITERATIONS.
    ------------------------------------------------

 NO OUTPUT CONTROL FOR STRESS PERIOD   12   TIME STEP    1
 
 SOLVING FOR HEAD 
                                                   Max.-Head-Change                         Max.-Flux-Residual
  Residual-Control   Outer-Iter.   Inner-Iter.     Column Row Layer    Maximum-Head-Change  Column Row Layer    Maximum-Flux-Residual          L2-NORM 
          0                 1           2             4    7     1       0.1529268532E-01       4    7    1         0.8064172975E+00      0.1706110083E+01
          0                 2           2             4    7     1      -0.1487566291E-02       4    7    1        -0.8064206941E-01      0.1698352085E+00
          0                 3           1             4    7     1       0.1012977018E-03       4    7    1         0.5644944096E-02      0.1189197415E-01
          0                 4           1             4    7     1      -0.4030731495E-05       4    7    1        -0.2308785527E-03      0.4915487095E-03

    ------------------------------------------------
       NWT REQUIRED            4 OUTER ITERATIONS 
       AND A TOTAL OF          6 INNER ITERATIONS.
    ------------------------------------------------

 NO OUTPUT CONTROL FOR STRESS PERIOD   12   TIME STEP    2
 
 SOLVING FOR HEAD 
                                                   Max.-Head-Change                         Max.-Flux-Residual
  Residual-Control   Outer-Iter.   Inner-Iter.     Column Row Layer    Maximum-Head-Change  Column Row Layer    Maximum-Flux-Residual          L2-NORM 
          0                 1           2             4    7     1       0.1508030528E-01       4    7    1         0.7951878206E+00      0.1681764559E+01
          0                 2           2             4    7     1      -0.1466907377E-02       4    7    1        -0.7951911311E-01      0.1674134387E+00
          0                 3           1             4    7     1       0.9989090707E-04       4    7    1         0.5566337178E-02      0.1172368849E-01

    ------------------------------------------------
       NWT REQUIRED            3 OUTER ITERATIONS 
       AND A TOTAL OF          5 INNER ITERATIONS.
    ------------------------------------------------

 NO OUTPUT CONTROL FOR STRESS PERIOD   12   TIME STEP    3
 
 SOLVING FOR HEAD 
                                                   Max.-Head-Change                         Max.-Flux-Residual
  Residual-Control   Outer-Iter.   Inner-Iter.     Column Row Layer    Maximum-Head-Change  Column Row Layer    Maximum-Flux-Residual          L2-NORM 
          0                 1           2             4    7     1       0.1487181878E-01       4    7    1         0.7841640656E+00      0.1658331816E+01
          0                 2           2             4    7     1      -0.1446627202E-02       4    7    1        -0.7841672923E-01      0.1650809991E+00
          0                 3           1             4    7     1       0.9850990385E-04       4    7    1         0.5489170359E-02      0.1156140850E-01

    ------------------------------------------------
       NWT REQUIRED            3 OUTER ITERATIONS 
       AND A TOTAL OF          5 INNER ITERATIONS.
    ------------------------------------------------

 NO OUTPUT CONTROL FOR STRESS PERIOD   12   TIME STEP    4
 
 SOLVING FOR HEAD 
                                                   Max.-Head-Change                         Max.-Flux-Residual
  Residual-Control   Outer-Iter.   Inner-Iter.     Column Row Layer    Maximum-Head-Change  Column Row Layer    Maximum-Flux-Residual          L2-NORM 
          0                 1           2             4    7     1       0.1466668660E-01       4    7    1         0.7733165265E+00      0.1635721458E+01
          0                 2           2             4    7     1      -0.1426673313E-02       4    7    1        -0.7733196713E-01      0.1628291708E+00
          0                 3           1             4    7     1       0.9715111905E-04       4    7    1         0.5413237056E-02      0.1140473759E-01

    ------------------------------------------------
       NWT REQUIRED            3 OUTER ITERATIONS 
       AND A TOTAL OF          5 INNER ITERATIONS.
    ------------------------------------------------

 NO OUTPUT CONTROL FOR STRESS PERIOD   12   TIME STEP    5
 
 SOLVING FOR HEAD 
                                                   Max.-Head-Change                         Max.-Flux-Residual
  Residual-Control   Outer-Iter.   Inner-Iter.     Column Row Layer    Maximum-Head-Change  Column Row Layer    Maximum-Flux-Residual          L2-NORM 
          0                 1           2             4    7     1       0.1446486917E-01       4    7    1         0.7626430355E+00      0.1613861861E+01
          0                 2           2             4    7     1      -0.1407041862E-02       4    7    1        -0.7626460998E-01      0.1606509899E+00
          0                 3           1             4    7     1       0.9581429138E-04       4    7    1         0.5338522114E-02      0.1125303091E-01

    ------------------------------------------------
       NWT REQUIRED            3 OUTER ITERATIONS 
       AND A TOTAL OF          5 INNER ITERATIONS.
    ------------------------------------------------

 NO OUTPUT CONTROL FOR STRESS PERIOD   12   TIME STEP    6
 
 SOLVING FOR HEAD 
                                                   Max.-Head-Change                         Max.-Flux-Residual
  Residual-Control   Outer-Iter.   Inner-Iter.     Column Row Layer    Maximum-Head-Change  Column Row Layer    Maximum-Flux-Residual          L2-NORM 
          0                 1           2             4    7     1       0.1426659969E-01       4    7    1         0.7521563170E+00      0.1592704695E+01
          0                 2           2             4    7     1      -0.1387755531E-02       4    7    1        -0.7521593026E-01      0.1585419308E+00
          0                 3           1             4    7     1       0.9450096489E-04       4    7    1         0.5265114575E-02      0.1110607100E-01

    ------------------------------------------------
       NWT REQUIRED            3 OUTER ITERATIONS 
       AND A TOTAL OF          5 INNER ITERATIONS.
    ------------------------------------------------

 NO OUTPUT CONTROL FOR STRESS PERIOD   12   TIME STEP    7
 
 SOLVING FOR HEAD 
                                                   Max.-Head-Change                         Max.-Flux-Residual
  Residual-Control   Outer-Iter.   Inner-Iter.     Column Row Layer    Maximum-Head-Change  Column Row Layer    Maximum-Flux-Residual          L2-NORM 
          0                 1           2             4    7     1       0.1407154328E-01       4    7    1         0.7418389163E+00      0.1572162947E+01
          0                 2           2             4    7     1      -0.1368781748E-02       4    7    1        -0.7418418255E-01      0.1564930822E+00
          0                 3           1             4    7     1       0.9320892171E-04       4    7    1         0.5192892267E-02      0.1096329981E-01

    ------------------------------------------------
       NWT REQUIRED            3 OUTER ITERATIONS 
       AND A TOTAL OF          5 INNER ITERATIONS.
    ------------------------------------------------

 NO OUTPUT CONTROL FOR STRESS PERIOD   12   TIME STEP    8
 
 SOLVING FOR HEAD 
                                                   Max.-Head-Change                         Max.-Flux-Residual
  Residual-Control   Outer-Iter.   Inner-Iter.     Column Row Layer    Maximum-Head-Change  Column Row Layer    Maximum-Flux-Residual          L2-NORM 
          0                 1           2             4    7     1       0.1387992447E-01       4    7    1         0.7317030132E+00      0.1552214801E+01
          0                 2           2             4    7     1      -0.1350142353E-02       4    7    1        -0.7317058478E-01      0.1544892833E+00
          0                 3           1             4    7     1       0.9193964911E-04       4    7    1         0.5121940462E-02      0.1082340339E-01

    ------------------------------------------------
       NWT REQUIRED            3 OUTER ITERATIONS 
       AND A TOTAL OF          5 INNER ITERATIONS.
    ------------------------------------------------

 NO OUTPUT CONTROL FOR STRESS PERIOD   12   TIME STEP    9
 
 SOLVING FOR HEAD 
                                                   Max.-Head-Change                         Max.-Flux-Residual
  Residual-Control   Outer-Iter.   Inner-Iter.     Column Row Layer    Maximum-Head-Change  Column Row Layer    Maximum-Flux-Residual          L2-NORM 
          0                 1           2             4    7     1       0.1369141151E-01       4    7    1         0.7217307018E+00      0.1532807900E+01
          0                 2           2             4    7     1      -0.1331805074E-02       4    7    1        -0.7217334635E-01      0.1525517351E+00
          0                 3           1             4    7     1       0.9069094933E-04       4    7    1         0.5052133804E-02      0.1068818126E-01

    ------------------------------------------------
       NWT REQUIRED            3 OUTER ITERATIONS 
       AND A TOTAL OF          5 INNER ITERATIONS.
    ------------------------------------------------

 NO OUTPUT CONTROL FOR STRESS PERIOD   12   TIME STEP   10
 
 SOLVING FOR HEAD 
                                                   Max.-Head-Change                         Max.-Flux-Residual
  Residual-Control   Outer-Iter.   Inner-Iter.     Column Row Layer    Maximum-Head-Change  Column Row Layer    Maximum-Flux-Residual          L2-NORM 
          0                 1           2             4    7     1       0.1350622942E-01       4    7    1         0.7119343244E+00      0.1513889134E+01
          0                 2           2             4    7     1      -0.1313791801E-02       4    7    1        -0.7119370149E-01      0.1506639143E+00
          0                 3           1             4    7     1       0.8946431342E-04       4    7    1         0.4983558704E-02      0.1055636316E-01

    ------------------------------------------------
       NWT REQUIRED            3 OUTER ITERATIONS 
       AND A TOTAL OF          5 INNER ITERATIONS.
    ------------------------------------------------

 NO OUTPUT CONTROL FOR STRESS PERIOD   12   TIME STEP   11
 
 SOLVING FOR HEAD 
                                                   Max.-Head-Change                         Max.-Flux-Residual
  Residual-Control   Outer-Iter.   Inner-Iter.     Column Row Layer    Maximum-Head-Change  Column Row Layer    Maximum-Flux-Residual          L2-NORM 
          0                 1           2             4    7     1       0.1332431968E-01       4    7    1         0.7023107797E+00      0.1495437385E+01
          0                 2           2             4    7     1      -0.1296096842E-02       4    7    1        -0.7023134007E-01      0.1488221247E+00
          0                 3           1             4    7     1       0.8825935323E-04       4    7    1         0.4916193455E-02      0.1042773073E-01

    ------------------------------------------------
       NWT REQUIRED            3 OUTER ITERATIONS 
       AND A TOTAL OF          5 INNER ITERATIONS.
    ------------------------------------------------

 NO OUTPUT CONTROL FOR STRESS PERIOD   12   TIME STEP   12
 
 SOLVING FOR HEAD 
                                                   Max.-Head-Change                         Max.-Flux-Residual
  Residual-Control   Outer-Iter.   Inner-Iter.     Column Row Layer    Maximum-Head-Change  Column Row Layer    Maximum-Flux-Residual          L2-NORM 
          0                 1           2             4    7     1       0.1314535355E-01       4    7    1         0.6928422509E+00      0.1477426850E+01
          0                 2           2             4    7     1      -0.1278688218E-02       4    7    1        -0.6928448043E-01      0.1470240269E+00
          0                 3           1             4    7     1       0.8707389184E-04       4    7    1         0.4849913316E-02      0.1030224192E-01

    ------------------------------------------------
       NWT REQUIRED            3 OUTER ITERATIONS 
       AND A TOTAL OF          5 INNER ITERATIONS.
    ------------------------------------------------

 NO OUTPUT CONTROL FOR STRESS PERIOD   12   TIME STEP   13
 
 SOLVING FOR HEAD 
                                                   Max.-Head-Change                         Max.-Flux-Residual
  Residual-Control   Outer-Iter.   Inner-Iter.     Column Row Layer    Maximum-Head-Change  Column Row Layer    Maximum-Flux-Residual          L2-NORM 
          0                 1           2             4    7     1       0.1296955501E-01       4    7    1         0.6835412395E+00      0.1459842926E+01
          0                 2           2             4    7     1      -0.1261587716E-02       4    7    1        -0.6835437271E-01      0.1452678212E+00
          0                 3           1             4    7     1       0.8590941177E-04       4    7    1         0.4784805819E-02      0.1017946888E-01

    ------------------------------------------------
       NWT REQUIRED            3 OUTER ITERATIONS 
       AND A TOTAL OF          5 INNER ITERATIONS.
    ------------------------------------------------

 NO OUTPUT CONTROL FOR STRESS PERIOD   12   TIME STEP   14
 
 SOLVING FOR HEAD 
                                                   Max.-Head-Change                         Max.-Flux-Residual
  Residual-Control   Outer-Iter.   Inner-Iter.     Column Row Layer    Maximum-Head-Change  Column Row Layer    Maximum-Flux-Residual          L2-NORM 
          0                 1           2             4    7     1       0.1279659332E-01       4    7    1         0.6743898069E+00      0.1442644130E+01
          0                 2           2             4    7     1      -0.1244763165E-02       4    7    1        -0.6743922301E-01      0.1435497465E+00
          0                 3           1             4    7     1       0.8476372285E-04       4    7    1         0.4720745349E-02      0.1005946963E-01

    ------------------------------------------------
       NWT REQUIRED            3 OUTER ITERATIONS 
       AND A TOTAL OF          5 INNER ITERATIONS.
    ------------------------------------------------

 NO OUTPUT CONTROL FOR STRESS PERIOD   12   TIME STEP   15
 
 SOLVING FOR HEAD 
                                                   Max.-Head-Change                         Max.-Flux-Residual
  Residual-Control   Outer-Iter.   Inner-Iter.     Column Row Layer    Maximum-Head-Change  Column Row Layer    Maximum-Flux-Residual          L2-NORM 
          0                 1           2             4    7     1       0.1262696476E-01       4    7    1         0.6654151349E+00      0.1425825732E+01
          0                 2           2             4    7     1      -0.1228262839E-02       4    7    1        -0.6654174958E-01      0.1418692281E+00
          0                 3           1             4    7     1       0.8364011270E-04       4    7    1         0.4657922238E-02      0.9941974167E-02

    ------------------------------------------------
       NWT REQUIRED            3 OUTER ITERATIONS 
       AND A TOTAL OF          5 INNER ITERATIONS.
    ------------------------------------------------

 NO OUTPUT CONTROL FOR STRESS PERIOD   12   TIME STEP   16
 
 SOLVING FOR HEAD 
                                                   Max.-Head-Change                         Max.-Flux-Residual
  Residual-Control   Outer-Iter.   Inner-Iter.     Column Row Layer    Maximum-Head-Change  Column Row Layer    Maximum-Flux-Residual          L2-NORM 
          0                 1           2             4    7     1       0.1246006012E-01       4    7    1         0.6565838492E+00      0.1409368707E+01
          0                 2           2             4    7     1      -0.1212027479E-02       4    7    1        -0.6565861493E-01      0.1402246178E+00
          0                 3           1             4    7     1       0.8253454582E-04       4    7    1         0.4596102843E-02      0.9827089283E-02

    ------------------------------------------------
       NWT REQUIRED            3 OUTER ITERATIONS 
       AND A TOTAL OF          5 INNER ITERATIONS.
    ------------------------------------------------

 NO OUTPUT CONTROL FOR STRESS PERIOD   12   TIME STEP   17
 
 SOLVING FOR HEAD 
                                                   Max.-Head-Change                         Max.-Flux-Residual
  Residual-Control   Outer-Iter.   Inner-Iter.     Column Row Layer    Maximum-Head-Change  Column Row Layer    Maximum-Flux-Residual          L2-NORM 
          0                 1           2             4    7     1       0.1229610017E-01       4    7    1         0.6479086844E+00      0.1393254272E+01
          0                 2           2             4    7     1      -0.1196078560E-02       4    7    1        -0.6479109253E-01      0.1386138709E+00
          0                 3           1             4    7     1       0.8144848436E-04       4    7    1         0.4535376331E-02      0.9715230288E-02

    ------------------------------------------------
       NWT REQUIRED            3 OUTER ITERATIONS 
       AND A TOTAL OF          5 INNER ITERATIONS.
    ------------------------------------------------

 NO OUTPUT CONTROL FOR STRESS PERIOD   12   TIME STEP   18
 
 SOLVING FOR HEAD 
                                                   Max.-Head-Change                         Max.-Flux-Residual
  Residual-Control   Outer-Iter.   Inner-Iter.     Column Row Layer    Maximum-Head-Change  Column Row Layer    Maximum-Flux-Residual          L2-NORM 
          0                 1           2             4    7     1       0.1213476073E-01       4    7    1         0.6393715307E+00      0.1377456494E+01
          0                 2           2             4    7     1      -0.1180384547E-02       4    7    1        -0.6393737138E-01      0.1370343645E+00
          0                 3           1             4    7     1       0.8037978147E-04       4    7    1         0.4475615878E-02      0.9604085034E-02

    ------------------------------------------------
       NWT REQUIRED            3 OUTER ITERATIONS 
       AND A TOTAL OF          5 INNER ITERATIONS.
    ------------------------------------------------

 NO OUTPUT CONTROL FOR STRESS PERIOD   12   TIME STEP   19
 
 SOLVING FOR HEAD 
                                                   Max.-Head-Change                         Max.-Flux-Residual
  Residual-Control   Outer-Iter.   Inner-Iter.     Column Row Layer    Maximum-Head-Change  Column Row Layer    Maximum-Flux-Residual          L2-NORM 
          0                 1           2             4    7     1       0.1197654399E-01       4    7    1         0.6309999148E+00      0.1361993183E+01
          0                 2           2             4    7     1      -0.1164994289E-02       4    7    1        -0.6310020417E-01      0.1354881154E+00
          0                 3           1             4    7     1       0.7933176264E-04       4    7    1         0.4417014189E-02      0.9495978449E-02

    ------------------------------------------------
       NWT REQUIRED            3 OUTER ITERATIONS 
       AND A TOTAL OF          5 INNER ITERATIONS.
    ------------------------------------------------

 NO OUTPUT CONTROL FOR STRESS PERIOD   12   TIME STEP   20
 
 SOLVING FOR HEAD 
                                                   Max.-Head-Change                         Max.-Flux-Residual
  Residual-Control   Outer-Iter.   Inner-Iter.     Column Row Layer    Maximum-Head-Change  Column Row Layer    Maximum-Flux-Residual          L2-NORM 
          0                 1           2             4    7     1       0.1182082746E-01       4    7    1         0.6227607640E+00      0.1346815689E+01
          0                 2           2             4    7     1      -0.1149847235E-02       4    7    1        -0.6227628362E-01      0.1339703933E+00
          0                 3           1             4    7     1       0.7830030478E-04       4    7    1         0.4359339764E-02      0.9389860188E-02

    ------------------------------------------------
       NWT REQUIRED            3 OUTER ITERATIONS 
       AND A TOTAL OF          5 INNER ITERATIONS.
    ------------------------------------------------

 NO OUTPUT CONTROL FOR STRESS PERIOD   12   TIME STEP   21
 
 SOLVING FOR HEAD 
                                                   Max.-Head-Change                         Max.-Flux-Residual
  Residual-Control   Outer-Iter.   Inner-Iter.     Column Row Layer    Maximum-Head-Change  Column Row Layer    Maximum-Flux-Residual          L2-NORM 
          0                 1           2             4    7     1       0.1166784533E-01       4    7    1         0.6146661265E+00      0.1331930217E+01
          0                 2           2             4    7     1      -0.1134966167E-02       4    7    1        -0.6146681454E-01      0.1324811946E+00
          0                 3           1             4    7     1       0.7728696024E-04       4    7    1         0.4302676959E-02      0.9285760475E-02

    ------------------------------------------------
       NWT REQUIRED            3 OUTER ITERATIONS 
       AND A TOTAL OF          5 INNER ITERATIONS.
    ------------------------------------------------

 NO OUTPUT CONTROL FOR STRESS PERIOD   12   TIME STEP   22
 
 SOLVING FOR HEAD 
                                                   Max.-Head-Change                         Max.-Flux-Residual
  Residual-Control   Outer-Iter.   Inner-Iter.     Column Row Layer    Maximum-Head-Change  Column Row Layer    Maximum-Flux-Residual          L2-NORM 
          0                 1           2             4    7     1       0.1151754286E-01       4    7    1         0.6067133719E+00      0.1317332591E+01
          0                 2           2             4    7     1      -0.1120345759E-02       4    7    1        -0.6067153390E-01      0.1310208492E+00
          0                 3           1             4    7     1       0.7629136549E-04       4    7    1         0.4247007338E-02      0.9183677665E-02

    ------------------------------------------------
       NWT REQUIRED            3 OUTER ITERATIONS 
       AND A TOTAL OF          5 INNER ITERATIONS.
    ------------------------------------------------

 NO OUTPUT CONTROL FOR STRESS PERIOD   12   TIME STEP   23
 
 SOLVING FOR HEAD 
                                                   Max.-Head-Change                         Max.-Flux-Residual
  Residual-Control   Outer-Iter.   Inner-Iter.     Column Row Layer    Maximum-Head-Change  Column Row Layer    Maximum-Flux-Residual          L2-NORM 
          0                 1           2             4    7     1       0.1136986043E-01       4    7    1         0.5988996595E+00      0.1302995865E+01
          0                 2           2             4    7     1      -0.1105980211E-02       4    7    1        -0.5989015764E-01      0.1295862106E+00
          0                 3           1             4    7     1       0.7531312575E-04       4    7    1         0.4192311042E-02      0.9083308407E-02

    ------------------------------------------------
       NWT REQUIRED            3 OUTER ITERATIONS 
       AND A TOTAL OF          5 INNER ITERATIONS.
    ------------------------------------------------

 NO OUTPUT CONTROL FOR STRESS PERIOD   12   TIME STEP   24
 
 SOLVING FOR HEAD 
                                                   Max.-Head-Change                         Max.-Flux-Residual
  Residual-Control   Outer-Iter.   Inner-Iter.     Column Row Layer    Maximum-Head-Change  Column Row Layer    Maximum-Flux-Residual          L2-NORM 
          0                 1           2             4    7     1       0.1122448192E-01       4    7    1         0.5912071106E+00      0.1288932461E+01
          0                 2           2             4    7     1      -0.1091838774E-02       4    7    1        -0.5912089781E-01      0.1281788866E+00
          0                 3           1             4    7     1       0.7435014694E-04       4    7    1         0.4138462857E-02      0.8984903139E-02

    ------------------------------------------------
       NWT REQUIRED            3 OUTER ITERATIONS 
       AND A TOTAL OF          5 INNER ITERATIONS.
    ------------------------------------------------

 NO OUTPUT CONTROL FOR STRESS PERIOD   12   TIME STEP   25
 
 SOLVING FOR HEAD 
                                                   Max.-Head-Change                         Max.-Flux-Residual
  Residual-Control   Outer-Iter.   Inner-Iter.     Column Row Layer    Maximum-Head-Change  Column Row Layer    Maximum-Flux-Residual          L2-NORM 
          0                 1           2             4    7     1       0.1108190633E-01       4    7    1         0.5836636773E+00      0.1275120426E+01
          0                 2           2             4    7     1      -0.1077969986E-02       4    7    1        -0.5836654973E-01      0.1267964391E+00
          0                 3           1             4    7     1       0.7340573443E-04       4    7    1         0.4085658522E-02      0.8887873712E-02

    ------------------------------------------------
       NWT REQUIRED            3 OUTER ITERATIONS 
       AND A TOTAL OF          5 INNER ITERATIONS.
    ------------------------------------------------

 NO OUTPUT CONTROL FOR STRESS PERIOD   12   TIME STEP   26
 
 SOLVING FOR HEAD 
                                                   Max.-Head-Change                         Max.-Flux-Residual
  Residual-Control   Outer-Iter.   Inner-Iter.     Column Row Layer    Maximum-Head-Change  Column Row Layer    Maximum-Flux-Residual          L2-NORM 
          0                 1           2             4    7     1       0.1094179592E-01       4    7    1         0.5762508967E+00      0.1261562339E+01
          0                 2           2             4    7     1      -0.1064340996E-02       4    7    1        -0.5762526703E-01      0.1254392886E+00
          0                 3           1             4    7     1       0.7247765215E-04       4    7    1         0.4033768773E-02      0.8792658104E-02

    ------------------------------------------------
       NWT REQUIRED            3 OUTER ITERATIONS 
       AND A TOTAL OF          5 INNER ITERATIONS.
    ------------------------------------------------

 NO OUTPUT CONTROL FOR STRESS PERIOD   12   TIME STEP   27
 
 SOLVING FOR HEAD 
                                                   Max.-Head-Change                         Max.-Flux-Residual
  Residual-Control   Outer-Iter.   Inner-Iter.     Column Row Layer    Maximum-Head-Change  Column Row Layer    Maximum-Flux-Residual          L2-NORM 
          0                 1           2             4    7     1       0.1080383296E-01       4    7    1         0.5689512437E+00      0.1248240953E+01
          0                 2           2             4    7     1      -0.1050920894E-02       4    7    1        -0.5689529722E-01      0.1241056154E+00
          0                 3           1             4    7     1       0.7156379322E-04       4    7    1         0.3982670886E-02      0.8699486949E-02

    ------------------------------------------------
       NWT REQUIRED            3 OUTER ITERATIONS 
       AND A TOTAL OF          5 INNER ITERATIONS.
    ------------------------------------------------

 NO OUTPUT CONTROL FOR STRESS PERIOD   12   TIME STEP   28
 
 SOLVING FOR HEAD 
                                                   Max.-Head-Change                         Max.-Flux-Residual
  Residual-Control   Outer-Iter.   Inner-Iter.     Column Row Layer    Maximum-Head-Change  Column Row Layer    Maximum-Flux-Residual          L2-NORM 
          0                 1           2             4    7     1       0.1066824729E-01       4    7    1         0.5617778029E+00      0.1235139717E+01
          0                 2           2             4    7     1      -0.1037732041E-02       4    7    1        -0.5617794875E-01      0.1227935080E+00
          0                 3           1             4    7     1       0.7066568205E-04       4    7    1         0.3932456530E-02      0.8608135721E-02

    ------------------------------------------------
       NWT REQUIRED            3 OUTER ITERATIONS 
       AND A TOTAL OF          5 INNER ITERATIONS.
    ------------------------------------------------

 NO OUTPUT CONTROL FOR STRESS PERIOD   12   TIME STEP   29
 
 SOLVING FOR HEAD 
                                                   Max.-Head-Change                         Max.-Flux-Residual
  Residual-Control   Outer-Iter.   Inner-Iter.     Column Row Layer    Maximum-Head-Change  Column Row Layer    Maximum-Flux-Residual          L2-NORM 
          0                 1           2             4    7     1       0.1053526330E-01       4    7    1         0.5547425012E+00      0.1222284573E+01
          0                 2           2             4    7     1      -0.1024796262E-02       4    7    1        -0.5547441430E-01      0.1215053918E+00
          0                 3           1             4    7     1       0.6978480354E-04       4    7    1         0.3883209119E-02      0.8517988404E-02

    ------------------------------------------------
       NWT REQUIRED            3 OUTER ITERATIONS 
       AND A TOTAL OF          5 INNER ITERATIONS.
    ------------------------------------------------

 NO OUTPUT CONTROL FOR STRESS PERIOD   12   TIME STEP   30



 STREAM LISTING     PERIOD     12   STEP       30

 LAYER ROW COL. STREAM  RCH.  FLOW INTO     FLOW TO   FLOW OUT OF   OVRLND.     DIRECT     STREAM       STREAM     STREAM     STREAM   STREAMBED  STREAMBED
                SEG.NO.  NO.  STRM. RCH.    AQUIFER    STRM. RCH.    RUNOFF     PRECIP       ET          HEAD       DEPTH      WIDTH   CONDCTNC.   GRADIENT

   1    1    1     1     1    2.6000E+01  2.4972E-01   2.5750E+01  0.000E+00  0.000E+00  0.000E+00  1.09424E+03  1.193E+00  1.323E+01  5.955E-02  1.398E+00
   1    2    2     1     2    2.5750E+01  3.8620E-01   2.5364E+01  0.000E+00  0.000E+00  0.000E+00  1.08925E+03  1.188E+00  1.317E+01  9.221E-02  1.396E+00
   1    3    3     1     3    2.5364E+01  3.2885E-01   2.5035E+01  0.000E+00  0.000E+00  0.000E+00  1.08360E+03  1.183E+00  1.310E+01  7.861E-02  1.394E+00
   1    3    4     1     4    2.5035E+01  3.0239E-01   2.4733E+01  0.000E+00  0.000E+00  0.000E+00  1.07859E+03  1.178E+00  1.304E+01  7.237E-02  1.393E+00
   1    4    5     2     1    2.2733E+01  3.2259E-01   2.2410E+01  0.000E+00  0.000E+00  0.000E+00  1.07307E+03  1.136E+00  1.200E+01  7.800E-02  1.379E+00
   1    5    6     2     2    2.2410E+01  2.4763E-01   2.2163E+01  0.000E+00  0.000E+00  0.000E+00  1.06764E+03  1.127E+00  1.200E+01  6.000E-02  1.376E+00
   1    6    6     2     3    2.2163E+01  2.4718E-01   2.1915E+01  0.000E+00  0.000E+00  0.000E+00  1.06291E+03  1.120E+00  1.200E+01  6.000E-02  1.373E+00
   1    7    6     2     4    2.1915E+01  2.4672E-01   2.1669E+01  0.000E+00  0.000E+00  0.000E+00  1.05819E+03  1.112E+00  1.200E+01  6.000E-02  1.371E+00
   1    8    6     2     5    2.1669E+01  2.4627E-01   2.1422E+01  0.000E+00  0.000E+00  0.000E+00  1.05346E+03  1.104E+00  1.200E+01  6.000E-02  1.368E+00
   1    3    5     3     1    2.0000E+00  2.8252E-01   1.7175E+00  0.000E+00  0.000E+00  0.000E+00  1.07555E+03  1.909E+00  9.636E+00  7.227E-02  1.955E+00
   1    3    6     3     2    1.7175E+00  2.4905E-01   1.4684E+00  0.000E+00  0.000E+00  0.000E+00  1.07264E+03  1.727E+00  8.909E+00  6.682E-02  1.864E+00
   1    3    7     3     3    1.4684E+00  1.9718E-01   1.2712E+00  0.000E+00  0.000E+00  0.000E+00  1.06987E+03  1.555E+00  8.218E+00  5.547E-02  1.777E+00
   1    4    8     3     4    1.2712E+00  2.2567E-01   1.0456E+00  0.000E+00  0.000E+00  0.000E+00  1.06682E+03  1.364E+00  7.455E+00  6.709E-02  1.682E+00
   1    5    8     3     5    1.0456E+00  1.5790E-01   8.8768E-01  0.000E+00  0.000E+00  0.000E+00  1.06362E+03  1.164E+00  6.655E+00  4.991E-02  1.582E+00
   1    6    8     3     6    8.8768E-01  5.5980E-02   8.3170E-01  0.000E+00  0.000E+00  0.000E+00  1.06158E+03  1.036E+00  6.145E+00  1.844E-02  1.518E+00
   1    5   10     4     1    1.0000E+01  9.0919E-02   9.9091E+00  0.000E+00  0.000E+00  0.000E+00  1.07836E+03  6.368E-01  1.000E+01  2.500E-02  1.212E+00
   1    5    9     4     2    9.9091E+00  1.8158E-01   9.7275E+00  0.000E+00  0.000E+00  0.000E+00  1.07154E+03  6.315E-01  1.000E+01  5.000E-02  1.211E+00
   1    6    8     4     3    9.7275E+00  1.2689E-01   9.6006E+00  0.000E+00  0.000E+00  0.000E+00  1.06381E+03  6.256E-01  1.000E+01  3.500E-02  1.209E+00
   1    6    8     5     1    1.0432E+01  2.2686E-01   1.0205E+01  0.000E+00  0.000E+00  0.000E+00  1.05868E+03  6.790E-01  1.542E+01  6.166E-02  1.226E+00
   1    7    7     5     2    1.0205E+01  2.7894E-01   9.9265E+00  0.000E+00  0.000E+00  0.000E+00  1.05417E+03  6.732E-01  1.519E+01  7.594E-02  1.224E+00
   1    8    7     5     3    9.9265E+00  1.9221E-01   9.7343E+00  0.000E+00  0.000E+00  0.000E+00  1.04992E+03  6.676E-01  1.497E+01  5.241E-02  1.223E+00
   1    8    6     5     4    9.7343E+00  1.3577E-01   9.5985E+00  0.000E+00  0.000E+00  0.000E+00  1.04691E+03  6.637E-01  1.482E+01  3.706E-02  1.221E+00
   1    9    6     6     1    3.1021E+01  2.6318E-01   3.0758E+01  0.000E+00  0.000E+00  0.000E+00  1.04411E+03  1.386E+00  1.200E+01  6.000E-02  1.462E+00
   1   10    7     6     2    3.0758E+01  2.6275E-01   3.0495E+01  0.000E+00  0.000E+00  0.000E+00  1.03956E+03  1.379E+00  1.200E+01  6.000E-02  1.460E+00
   1   11    7     6     3    3.0495E+01  2.6233E-01   3.0233E+01  0.000E+00  0.000E+00  0.000E+00  1.03501E+03  1.372E+00  1.200E+01  6.000E-02  1.457E+00
   1   12    7     6     4    3.0233E+01  2.6190E-01   2.9971E+01  0.000E+00  0.000E+00  0.000E+00  1.03046E+03  1.365E+00  1.200E+01  6.000E-02  1.455E+00
   1   13    7     6     5    2.9971E+01  3.5849E-03   2.9967E+01  0.000E+00  0.000E+00  0.000E+00  1.02727E+03  1.361E+00  1.200E+01  2.400E-02  4.979E-02
   1   14    9     7     1    1.5000E+02  1.3336E+00   1.4867E+02  0.000E+00  0.000E+00  0.000E+00  1.03987E+03  2.288E+00  5.529E+01  5.593E-01  7.948E-01
   1   13    8     7     2    1.4867E+02  1.8216E+00   1.4684E+02  0.000E+00  0.000E+00  0.000E+00  1.03478E+03  2.279E+00  5.526E+01  6.148E-01  9.877E-01
   1   13    7     7     3    1.4684E+02  1.4346E+00   1.4541E+02  0.000E+00  0.000E+00  0.000E+00  1.02969E+03  2.271E+00  5.522E+01  5.585E-01  8.563E-01
   1   13    6     8     1    1.7538E+02  9.1400E-01   1.7446E+02  0.000E+00  0.000E+00  0.000E+00  1.02486E+03  2.984E+00  4.327E+01  4.409E-01  6.910E-01
   1   13    5     8     2    1.7446E+02  1.6121E-01   1.7430E+02  0.000E+00  0.000E+00  0.000E+00  1.01861E+03  2.981E+00  4.322E+01  4.404E-01  1.220E-01
   1   13    4     8     3    1.7430E+02 -2.5338E+00   1.7684E+02  0.000E+00  0.000E+00  0.000E+00  1.01236E+03  2.988E+00  4.333E+01  4.415E+00 -1.913E-01
   1   13    3     8     4    1.7684E+02 -3.7115E+00   1.8055E+02  0.000E+00  0.000E+00  0.000E+00  1.00613E+03  3.008E+00  4.361E+01  4.445E+00 -2.784E-01
   1   13    2     8     5    1.8055E+02 -2.5970E+00   1.8314E+02  0.000E+00  0.000E+00  0.000E+00  9.99903E+02  3.028E+00  4.390E+01  4.474E+00 -1.935E-01
   1   13    1     8     6    1.8314E+02 -1.9869E+00   1.8513E+02  0.000E+00  0.000E+00  0.000E+00  9.94917E+02  3.042E+00  4.411E+01  2.697E+00 -2.456E-01





UNSATURATED ZONE PACKAGE VOLUMETRIC BUDGET FOR  TIME STEP    30 STRESS PERIOD   12
  ------------------------------------------------------------------------------



     CUMULATIVE VOLUMES      L**3       RATES FOR THIS TIME STEP      L**3/T
     ------------------                 ------------------------

           IN:                                      IN:
           ---                                      ---
        INFILTRATION =   194345439.6343          INFILTRATION =           0.8475

          OUT:                                     OUT:
          ----                                     ----
              UZF ET =    93650333.0772                UZF ET =           0.0276
        UZF RECHARGE =     8397008.9942          UZF RECHARGE =           0.0712

            IN - OUT =    92298097.5629              IN - OUT =           0.7486

          STORAGE:                                 STORAGE:
          --------                                 --------
      STORAGE CHANGE =    92360307.8580        STORAGE CHANGE =           0.7486

 PERCENT DISCREPANCY IS DIFFERENCE BETWEEN IN-OUT MINUS CHANGE IN STORAGE
 DIVIDED BY THE AVERAGE OF IN AND OUT TIMES 100

 PERCENT DISCREPANCY =          -0.01     PERCENT DISCREPANCY =          -0.00






1
  VOLUMETRIC BUDGET FOR ENTIRE MODEL AT END OF TIME STEP   30, STRESS PERIOD  12
  ------------------------------------------------------------------------------

     CUMULATIVE VOLUMES      L**3       RATES FOR THIS TIME STEP      L**3/T
     ------------------                 ------------------------

           IN:                                      IN:
           ---                                      ---
               AWU WELLS =   169772608.0000                 AWU WELLS =           0.0000
      DIVERSION SEGMENTS =           0.0000        DIVERSION SEGMENTS =           0.0000
           GW IRRIGATION =           0.0000             GW IRRIGATION =           0.0000
           SW IRRIGATION =           0.0000             SW IRRIGATION =           0.0000
        SYSTEM LOSSES GW =           0.0000          SYSTEM LOSSES GW =           0.0000
        SYSTEM LOSSES SW =           0.0000          SYSTEM LOSSES SW =           0.0000

                TOTAL IN =   169772608.0000                  TOTAL IN =           0.0000

          OUT:                                     OUT:
          ----                                     ----
               AWU WELLS =           0.0000                 AWU WELLS =           0.0000
      DIVERSION SEGMENTS =           0.0000        DIVERSION SEGMENTS =           0.0000
           GW IRRIGATION =   169772608.0000             GW IRRIGATION =           0.0000
           SW IRRIGATION =           0.0000             SW IRRIGATION =           0.0000
        SYSTEM LOSSES GW =           0.0000          SYSTEM LOSSES GW =           0.0000
        SYSTEM LOSSES SW =           0.0000          SYSTEM LOSSES SW =           0.0000

               TOTAL OUT =   169772608.0000                 TOTAL OUT =           0.0000

                IN - OUT =           0.0000                  IN - OUT =           0.0000

     PERCENT DISCREPANCY =           0.00         PERCENT DISCREPANCY =           0.00



1
  VOLUMETRIC BUDGET FOR ENTIRE MODEL AT END OF TIME STEP   30, STRESS PERIOD  12
  ------------------------------------------------------------------------------

     CUMULATIVE VOLUMES      L**3       RATES FOR THIS TIME STEP      L**3/T
     ------------------                 ------------------------

           IN:                                      IN:
           ---                                      ---
             STORAGE     =   278698496.0000               STORAGE     =           3.1114
       CONSTANT HEAD     =           0.0000         CONSTANT HEAD     =           0.0000
     HEAD DEP BOUNDS     =     8283445.5000       HEAD DEP BOUNDS     =           0.2856
      STREAM LEAKAGE     =   371082432.0000        STREAM LEAKAGE     =          11.6978
        UZF RECHARGE     =     8397011.0000          UZF RECHARGE     =       7.1237E-02
               GW ET     =           0.0000                 GW ET     =           0.0000
     SURFACE LEAKAGE     =           0.0000       SURFACE LEAKAGE     =           0.0000
           AWU WELLS     =           0.0000             AWU WELLS     =           0.0000

                TOTAL IN =   666461376.0000                  TOTAL IN =          15.1660

          OUT:                                     OUT:
          ----                                     ----
             STORAGE     =   163722128.0000               STORAGE     =           4.0362
       CONSTANT HEAD     =           0.0000         CONSTANT HEAD     =           0.0000
     HEAD DEP BOUNDS     =     8416003.0000       HEAD DEP BOUNDS     =           0.2908
      STREAM LEAKAGE     =   269405920.0000        STREAM LEAKAGE     =          10.8292
        UZF RECHARGE     =           0.0000          UZF RECHARGE     =           0.0000
               GW ET     =    55149572.0000                 GW ET     =       9.9999E-03
     SURFACE LEAKAGE     =           0.0000       SURFACE LEAKAGE     =           0.0000
           AWU WELLS     =   169772608.0000             AWU WELLS     =           0.0000

               TOTAL OUT =   666466240.0000                 TOTAL OUT =          15.1662

                IN - OUT =       -4864.0000                  IN - OUT =      -1.5163E-04

     PERCENT DISCREPANCY =          -0.00         PERCENT DISCREPANCY =          -0.00






         TIME SUMMARY AT END OF TIME STEP   30 IN STRESS PERIOD   12
                    SECONDS     MINUTES      HOURS       DAYS        YEARS
                    -----------------------------------------------------------
   TIME STEP LENGTH  87600.      1460.0      24.333      1.0139     2.77588E-03
 STRESS PERIOD TIME 2.62800E+06  43800.      730.00      30.417     8.32763E-02
         TOTAL TIME 2.89944E+07 4.83240E+05  8054.0      335.58     0.91878    
1
1
                            STRESS PERIOD NO.   13, LENGTH =   2628000.    
                            -----------------------------------------------

                              NUMBER OF TIME STEPS =    30

                               MULTIPLIER FOR DELT =     1.000

                            INITIAL TIME STEP SIZE =   87600.00    

 REUSING NON-PARAMETER GHB CELLS FROM LAST STRESS PERIOD

      2 GHB CELLS

 REUSING STREAM SEGMENT DATA FROM LAST STRESS PERIOD



            AREAL INFILTRATION RATE
 READING ON UNIT   19 WITH FORMAT: (10F4.0)            

            1           2           3           4           5           6           7           8           9          10
 ........................................................................................................................
   1   1.0000E-10  2.0000E-10   0.000       0.000       0.000       0.000       0.000       0.000       0.000       0.000    
   2   2.0000E-10  1.0000E-10  2.0000E-10   0.000       0.000      8.0000E-10  8.0000E-10  5.0000E-10   0.000       0.000    
   3    0.000      5.0000E-10  1.0000E-10  1.0000E-10  8.0000E-10  8.0000E-10  5.0000E-10  5.0000E-10   0.000       0.000    
   4   8.0000E-10  5.0000E-10  1.0000E-10  1.0000E-10  1.0000E-10  1.0000E-10  1.0000E-10  1.0000E-10  2.0000E-10   0.000    
   5   8.0000E-10  5.0000E-10  1.0000E-10  1.0000E-10  1.0000E-10  1.0000E-10  1.0000E-10  1.0000E-10  1.0000E-10  1.0000E-10
   6   8.0000E-10  5.0000E-10  5.0000E-10  2.0000E-10  2.0000E-10  1.0000E-10  1.0000E-10  1.0000E-10  1.0000E-10  5.0000E-10
   7   8.0000E-10  5.0000E-10  5.0000E-10  2.0000E-10  2.0000E-10  1.0000E-10  1.0000E-10  2.0000E-10  2.0000E-10   0.000    
   8    0.000      5.0000E-10  5.0000E-10  2.0000E-10  2.0000E-10  1.0000E-10  1.0000E-10  2.0000E-10  5.0000E-10   0.000    
   9    0.000      5.0000E-10  5.0000E-10  2.0000E-10  2.0000E-10  1.0000E-10  1.0000E-10  2.0000E-10  5.0000E-10   0.000    
  10    0.000      5.0000E-10  5.0000E-10  2.0000E-10  2.0000E-10  1.0000E-10  1.0000E-10  2.0000E-10  5.0000E-10  8.0000E-10
  11    0.000      1.0000E-10  1.0000E-10  1.0000E-10  1.0000E-10  1.0000E-10  1.0000E-10  2.0000E-10  5.0000E-10   0.000    
  12   1.0000E-10  1.0000E-10  1.0000E-10  1.0000E-10  1.0000E-10  1.0000E-10  1.0000E-10  1.0000E-10  2.0000E-10   0.000    
  13   1.0000E-10  1.0000E-10  2.0000E-10  2.0000E-10  2.0000E-10  2.0000E-10  2.0000E-10  1.0000E-10  1.0000E-10   0.000    
  14    0.000      2.0000E-10  5.0000E-10  5.0000E-10  5.0000E-10  5.0000E-10  5.0000E-10  2.0000E-10  1.0000E-10   0.000    
  15    0.000       0.000      8.0000E-10  8.0000E-10  8.0000E-10  8.0000E-10   0.000       0.000       0.000       0.000    

                  ET RATE =  1.000000E-10

 USING ET EXTINCTION DEPTH FROM PREVIOUS STRESS PERIOD. CURRENT PERIOD IS:      13

 USING EXTINCTION WATER CONTENT FROM PREVIOUS STRESS PERIOD. CURRENT PERIOD IS:      13

 PROCESSING AWU STRESS PERIOD DATA

 READING AWU STRESS PERIOD DATA

 READING IRRIGATION WELL

 END PROCESSING AWU STRESS PERIOD DATA OPTIONS
 
 SOLVING FOR HEAD 
                                                   Max.-Head-Change                         Max.-Flux-Residual
  Residual-Control   Outer-Iter.   Inner-Iter.     Column Row Layer    Maximum-Head-Change  Column Row Layer    Maximum-Flux-Residual          L2-NORM 
          0                 1           2             4    7     1       0.1040425497E-01       4    7    1         0.5478126230E+00      0.1218263730E+01
          0                 2           2             4    7     1      -0.1012052664E-02       4    7    1        -0.5478142235E-01      0.1211271620E+00
          0                 3           1             4    7     1       0.6891701259E-04       4    7    1         0.3834699716E-02      0.8488417272E-02

    ------------------------------------------------
       NWT REQUIRED            3 OUTER ITERATIONS 
       AND A TOTAL OF          5 INNER ITERATIONS.
    ------------------------------------------------

 NO OUTPUT CONTROL FOR STRESS PERIOD   13   TIME STEP    1
 
 SOLVING FOR HEAD 
                                                   Max.-Head-Change                         Max.-Flux-Residual
  Residual-Control   Outer-Iter.   Inner-Iter.     Column Row Layer    Maximum-Head-Change  Column Row Layer    Maximum-Flux-Residual          L2-NORM 
          0                 1           2             4    7     1       0.1027573366E-01       4    7    1         0.5410148307E+00      0.1205803355E+01
          0                 2           2             4    7     1      -0.9995509846E-03       4    7    1        -0.5410163910E-01      0.1198836547E+00
          0                 3           1             4    7     1       0.6806569552E-04       4    7    1         0.3787114907E-02      0.8401453213E-02

    ------------------------------------------------
       NWT REQUIRED            3 OUTER ITERATIONS 
       AND A TOTAL OF          5 INNER ITERATIONS.
    ------------------------------------------------

 NO OUTPUT CONTROL FOR STRESS PERIOD   13   TIME STEP    2
 
 SOLVING FOR HEAD 
                                                   Max.-Head-Change                         Max.-Flux-Residual
  Residual-Control   Outer-Iter.   Inner-Iter.     Column Row Layer    Maximum-Head-Change  Column Row Layer    Maximum-Flux-Residual          L2-NORM 
          0                 1           2             4    7     1       0.1014936060E-01       4    7    1         0.5343312977E+00      0.1192661839E+01
          0                 2           2             4    7     1      -0.9872582748E-03       4    7    1        -0.5343328190E-01      0.1185730375E+00
          0                 3           1             4    7     1       0.6722860772E-04       4    7    1         0.3740329905E-02      0.8310176364E-02

    ------------------------------------------------
       NWT REQUIRED            3 OUTER ITERATIONS 
       AND A TOTAL OF          5 INNER ITERATIONS.
    ------------------------------------------------

 NO OUTPUT CONTROL FOR STRESS PERIOD   13   TIME STEP    3
 
 SOLVING FOR HEAD 
                                                   Max.-Head-Change                         Max.-Flux-Residual
  Residual-Control   Outer-Iter.   Inner-Iter.     Column Row Layer    Maximum-Head-Change  Column Row Layer    Maximum-Flux-Residual          L2-NORM 
          0                 1           2             4    7     1       0.1002483072E-01       4    7    1         0.5277444458E+00      0.1179860571E+01
          0                 2           2             4    7     1      -0.9751448564E-03       4    7    1        -0.5277459288E-01      0.1172959219E+00
          0                 3           1             4    7     1       0.6640372942E-04       4    7    1         0.3694221695E-02      0.8221155999E-02

    ------------------------------------------------
       NWT REQUIRED            3 OUTER ITERATIONS 
       AND A TOTAL OF          5 INNER ITERATIONS.
    ------------------------------------------------

 NO OUTPUT CONTROL FOR STRESS PERIOD   13   TIME STEP    4
 
 SOLVING FOR HEAD 
                                                   Max.-Head-Change                         Max.-Flux-Residual
  Residual-Control   Outer-Iter.   Inner-Iter.     Column Row Layer    Maximum-Head-Change  Column Row Layer    Maximum-Flux-Residual          L2-NORM 
          0                 1           2             4    7     1       0.9902656444E-02       4    7    1         0.5212828077E+00      0.1167363462E+01
          0                 2           2             4    7     1      -0.9632605766E-03       4    7    1        -0.5212842540E-01      0.1160486232E+00
          0                 3           1             4    7     1       0.6559445451E-04       4    7    1         0.3648989984E-02      0.8134081892E-02

    ------------------------------------------------
       NWT REQUIRED            3 OUTER ITERATIONS 
       AND A TOTAL OF          5 INNER ITERATIONS.
    ------------------------------------------------

 NO OUTPUT CONTROL FOR STRESS PERIOD   13   TIME STEP    5
 
 SOLVING FOR HEAD 
                                                   Max.-Head-Change                         Max.-Flux-Residual
  Residual-Control   Outer-Iter.   Inner-Iter.     Column Row Layer    Maximum-Head-Change  Column Row Layer    Maximum-Flux-Residual          L2-NORM 
          0                 1           2             4    7     1       0.9782503482E-02       4    7    1         0.5149286097E+00      0.1155143249E+01
          0                 2           2             4    7     1      -0.9516093846E-03       4    7    1        -0.5149300196E-01      0.1148830972E+00
          0                 3           1             4    7     1       0.6480105186E-04       4    7    1         0.3604510354E-02      0.8052938678E-02

    ------------------------------------------------
       NWT REQUIRED            3 OUTER ITERATIONS 
       AND A TOTAL OF          5 INNER ITERATIONS.
    ------------------------------------------------

 NO OUTPUT CONTROL FOR STRESS PERIOD   13   TIME STEP    6
 
 SOLVING FOR HEAD 
                                                   Max.-Head-Change                         Max.-Flux-Residual
  Residual-Control   Outer-Iter.   Inner-Iter.     Column Row Layer    Maximum-Head-Change  Column Row Layer    Maximum-Flux-Residual          L2-NORM 
          0                 1           2             4    7     1       0.9663945765E-02       4    7    1         0.5086625651E+00      0.1143147349E+01
          0                 2           2             4    7     1      -0.9400404377E-03       4    7    1        -0.5086639408E-01      0.1136311952E+00
          0                 3           1             4    7     1       0.6401325009E-04       4    7    1         0.3560647819E-02      0.7965650291E-02

    ------------------------------------------------
       NWT REQUIRED            3 OUTER ITERATIONS 
       AND A TOTAL OF          5 INNER ITERATIONS.
    ------------------------------------------------

 NO OUTPUT CONTROL FOR STRESS PERIOD   13   TIME STEP    7
 
 SOLVING FOR HEAD 
                                                   Max.-Head-Change                         Max.-Flux-Residual
  Residual-Control   Outer-Iter.   Inner-Iter.     Column Row Layer    Maximum-Head-Change  Column Row Layer    Maximum-Flux-Residual          L2-NORM 
          0                 1           2             4    7     1       0.9547615294E-02       4    7    1         0.5025127497E+00      0.1131393465E+01
          0                 2           2             4    7     1      -0.9287246052E-03       4    7    1        -0.5025140919E-01      0.1124574849E+00
          0                 3           1             4    7     1       0.6324268452E-04       4    7    1         0.3517598895E-02      0.7883718262E-02

    ------------------------------------------------
       NWT REQUIRED            3 OUTER ITERATIONS 
       AND A TOTAL OF          5 INNER ITERATIONS.
    ------------------------------------------------

 NO OUTPUT CONTROL FOR STRESS PERIOD   13   TIME STEP    8
 
 SOLVING FOR HEAD 
                                                   Max.-Head-Change                         Max.-Flux-Residual
  Residual-Control   Outer-Iter.   Inner-Iter.     Column Row Layer    Maximum-Head-Change  Column Row Layer    Maximum-Flux-Residual          L2-NORM 
          0                 1           2             4    7     1       0.9433431738E-02       4    7    1         0.4964765632E+00      0.1119885247E+01
          0                 2           2             4    7     1      -0.9176176107E-03       4    7    1        -0.4964778728E-01      0.1113083093E+00
          0                 3           1             4    7     1       0.6248633969E-04       4    7    1         0.3475345385E-02      0.7803532170E-02

    ------------------------------------------------
       NWT REQUIRED            3 OUTER ITERATIONS 
       AND A TOTAL OF          5 INNER ITERATIONS.
    ------------------------------------------------

 NO OUTPUT CONTROL FOR STRESS PERIOD   13   TIME STEP    9
 
 SOLVING FOR HEAD 
                                                   Max.-Head-Change                         Max.-Flux-Residual
  Residual-Control   Outer-Iter.   Inner-Iter.     Column Row Layer    Maximum-Head-Change  Column Row Layer    Maximum-Flux-Residual          L2-NORM 
          0                 1           2             4    7     1       0.9320792310E-02       4    7    1         0.4905221975E+00      0.1108588324E+01
          0                 2           2             4    7     1      -0.9066608182E-03       4    7    1        -0.4905234752E-01      0.1101805591E+00
          0                 3           1             4    7     1       0.6174022318E-04       4    7    1         0.3433664598E-02      0.7724773700E-02

    ------------------------------------------------
       NWT REQUIRED            3 OUTER ITERATIONS 
       AND A TOTAL OF          5 INNER ITERATIONS.
    ------------------------------------------------

 NO OUTPUT CONTROL FOR STRESS PERIOD   13   TIME STEP   10
 
 SOLVING FOR HEAD 
                                                   Max.-Head-Change                         Max.-Flux-Residual
  Residual-Control   Outer-Iter.   Inner-Iter.     Column Row Layer    Maximum-Head-Change  Column Row Layer    Maximum-Flux-Residual          L2-NORM 
          0                 1           2             4    7     1       0.9209963090E-02       4    7    1         0.4846627425E+00      0.1097525732E+01
          0                 2           2             4    7     1      -0.8958801112E-03       4    7    1        -0.4846639891E-01      0.1090767319E+00
          0                 3           1             4    7     1       0.6100609725E-04       4    7    1         0.3392648212E-02      0.7647852403E-02

    ------------------------------------------------
       NWT REQUIRED            3 OUTER ITERATIONS 
       AND A TOTAL OF          5 INNER ITERATIONS.
    ------------------------------------------------

 NO OUTPUT CONTROL FOR STRESS PERIOD   13   TIME STEP   11
 
 SOLVING FOR HEAD 
                                                   Max.-Head-Change                         Max.-Flux-Residual
  Residual-Control   Outer-Iter.   Inner-Iter.     Column Row Layer    Maximum-Head-Change  Column Row Layer    Maximum-Flux-Residual          L2-NORM 
          0                 1           2             4    7     1       0.9101168998E-02       4    7    1         0.4789120059E+00      0.1086652433E+01
          0                 2           2             4    7     1      -0.8852973673E-03       4    7    1        -0.4789132222E-01      0.1079894902E+00
          0                 3           1             4    7     1       0.6028545222E-04       4    7    1         0.3352392847E-02      0.7571859920E-02

    ------------------------------------------------
       NWT REQUIRED            3 OUTER ITERATIONS 
       AND A TOTAL OF          5 INNER ITERATIONS.
    ------------------------------------------------

 NO OUTPUT CONTROL FOR STRESS PERIOD   13   TIME STEP   12
 
 SOLVING FOR HEAD 
                                                   Max.-Head-Change                         Max.-Flux-Residual
  Residual-Control   Outer-Iter.   Inner-Iter.     Column Row Layer    Maximum-Head-Change  Column Row Layer    Maximum-Flux-Residual          L2-NORM 
          0                 1           2             4    7     1       0.8994096699E-02       4    7    1         0.4732520780E+00      0.1075982094E+01
          0                 2           2             4    7     1      -0.8748821089E-03       4    7    1        -0.4732532648E-01      0.1069222638E+00
          0                 3           1             4    7     1       0.5957621225E-04       4    7    1         0.3312773169E-02      0.7497335225E-02

    ------------------------------------------------
       NWT REQUIRED            3 OUTER ITERATIONS 
       AND A TOTAL OF          5 INNER ITERATIONS.
    ------------------------------------------------

 NO OUTPUT CONTROL FOR STRESS PERIOD   13   TIME STEP   13
 
 SOLVING FOR HEAD 
                                                   Max.-Head-Change                         Max.-Flux-Residual
  Residual-Control   Outer-Iter.   Inner-Iter.     Column Row Layer    Maximum-Head-Change  Column Row Layer    Maximum-Flux-Residual          L2-NORM 
          0                 1           2             4    7     1       0.8888715074E-02       4    7    1         0.4676814905E+00      0.1065508777E+01
          0                 2           2             4    7     1      -0.8646313078E-03       4    7    1        -0.4676826485E-01      0.1058745901E+00
          0                 3           1             4    7     1       0.5887817141E-04       4    7    1         0.3273778865E-02      0.7423848300E-02

    ------------------------------------------------
       NWT REQUIRED            3 OUTER ITERATIONS 
       AND A TOTAL OF          5 INNER ITERATIONS.
    ------------------------------------------------

 NO OUTPUT CONTROL FOR STRESS PERIOD   13   TIME STEP   14
 
 SOLVING FOR HEAD 
                                                   Max.-Head-Change                         Max.-Flux-Residual
  Residual-Control   Outer-Iter.   Inner-Iter.     Column Row Layer    Maximum-Head-Change  Column Row Layer    Maximum-Flux-Residual          L2-NORM 
          0                 1           2             4    7     1       0.8784997711E-02       4    7    1         0.4621986286E+00      0.1055219526E+01
          0                 2           2             4    7     1      -0.8545423949E-03       4    7    1        -0.4621997587E-01      0.1048450731E+00
          0                 3           1             4    7     1       0.5819115340E-04       4    7    1         0.3235398625E-02      0.7351449911E-02

    ------------------------------------------------
       NWT REQUIRED            3 OUTER ITERATIONS 
       AND A TOTAL OF          5 INNER ITERATIONS.
    ------------------------------------------------

 NO OUTPUT CONTROL FOR STRESS PERIOD   13   TIME STEP   15
 
 SOLVING FOR HEAD 
                                                   Max.-Head-Change                         Max.-Flux-Residual
  Residual-Control   Outer-Iter.   Inner-Iter.     Column Row Layer    Maximum-Head-Change  Column Row Layer    Maximum-Flux-Residual          L2-NORM 
          0                 1           2             4    7     1       0.8682909602E-02       4    7    1         0.4568021220E+00      0.1045100682E+01
          0                 2           2             4    7     1      -0.8446119651E-03       4    7    1        -0.4568032247E-01      0.1038323953E+00
          0                 3           1             4    7     1       0.5751492863E-04       4    7    1         0.3197622899E-02      0.7281013367E-02

    ------------------------------------------------
       NWT REQUIRED            3 OUTER ITERATIONS 
       AND A TOTAL OF          5 INNER ITERATIONS.
    ------------------------------------------------

 NO OUTPUT CONTROL FOR STRESS PERIOD   13   TIME STEP   16
 
 SOLVING FOR HEAD 
                                                   Max.-Head-Change                         Max.-Flux-Residual
  Residual-Control   Outer-Iter.   Inner-Iter.     Column Row Layer    Maximum-Head-Change  Column Row Layer    Maximum-Flux-Residual          L2-NORM 
          0                 1           2             4    7     1       0.8582689954E-02       4    7    1         0.4515049456E+00      0.1035160620E+01
          0                 2           2             4    7     1      -0.8348632865E-03       4    7    1        -0.4515060215E-01      0.1028366663E+00
          0                 3           1             4    7     1       0.5685108022E-04       4    7    1         0.3160542493E-02      0.7211753505E-02

    ------------------------------------------------
       NWT REQUIRED            3 OUTER ITERATIONS 
       AND A TOTAL OF          5 INNER ITERATIONS.
    ------------------------------------------------

 NO OUTPUT CONTROL FOR STRESS PERIOD   13   TIME STEP   17
 
 SOLVING FOR HEAD 
                                                   Max.-Head-Change                         Max.-Flux-Residual
  Residual-Control   Outer-Iter.   Inner-Iter.     Column Row Layer    Maximum-Head-Change  Column Row Layer    Maximum-Flux-Residual          L2-NORM 
          0                 1           2             4    7     1       0.8484026282E-02       4    7    1         0.4462899285E+00      0.1025383223E+01
          0                 2           2             4    7     1      -0.8252659639E-03       4    7    1        -0.4462909788E-01      0.1018565591E+00
          0                 3           1             4    7     1       0.5619753893E-04       4    7    1         0.3124037210E-02      0.7143203803E-02

    ------------------------------------------------
       NWT REQUIRED            3 OUTER ITERATIONS 
       AND A TOTAL OF          5 INNER ITERATIONS.
    ------------------------------------------------

 NO OUTPUT CONTROL FOR STRESS PERIOD   13   TIME STEP   18
 
 SOLVING FOR HEAD 
                                                   Max.-Head-Change                         Max.-Flux-Residual
  Residual-Control   Outer-Iter.   Inner-Iter.     Column Row Layer    Maximum-Head-Change  Column Row Layer    Maximum-Flux-Residual          L2-NORM 
          0                 1           2             4    7     1       0.8386888089E-02       4    7    1         0.4411556478E+00      0.1015760307E+01
          0                 2           2             4    7     1      -0.8158170288E-03       4    7    1        -0.4411566727E-01      0.1008917562E+00
          0                 3           1             4    7     1       0.5555410123E-04       4    7    1         0.3088097076E-02      0.7075732876E-02

    ------------------------------------------------
       NWT REQUIRED            3 OUTER ITERATIONS 
       AND A TOTAL OF          5 INNER ITERATIONS.
    ------------------------------------------------

 NO OUTPUT CONTROL FOR STRESS PERIOD   13   TIME STEP   19
 
 SOLVING FOR HEAD 
                                                   Max.-Head-Change                         Max.-Flux-Residual
  Residual-Control   Outer-Iter.   Inner-Iter.     Column Row Layer    Maximum-Head-Change  Column Row Layer    Maximum-Flux-Residual          L2-NORM 
          0                 1           2             4    7     1       0.8291519318E-02       4    7    1         0.4361153135E+00      0.1006304163E+01
          0                 2           2             4    7     1      -0.8065402118E-03       4    7    1        -0.4361163141E-01      0.9994340145E-01
          0                 3           1             4    7     1       0.5492238500E-04       4    7    1         0.3052814570E-02      0.7009429450E-02

    ------------------------------------------------
       NWT REQUIRED            3 OUTER ITERATIONS 
       AND A TOTAL OF          5 INNER ITERATIONS.
    ------------------------------------------------

 NO OUTPUT CONTROL FOR STRESS PERIOD   13   TIME STEP   20
 
 SOLVING FOR HEAD 
                                                   Max.-Head-Change                         Max.-Flux-Residual
  Residual-Control   Outer-Iter.   Inner-Iter.     Column Row Layer    Maximum-Head-Change  Column Row Layer    Maximum-Flux-Residual          L2-NORM 
          0                 1           2             4    7     1       0.8197332296E-02       4    7    1         0.4311372062E+00      0.9969919354E+00
          0                 2           2             4    7     1      -0.7973783473E-03       4    7    1        -0.4311381828E-01      0.9900940778E-01
          0                 3           1             4    7     1       0.5429849627E-04       4    7    1         0.3017967653E-02      0.6944108096E-02

    ------------------------------------------------
       NWT REQUIRED            3 OUTER ITERATIONS 
       AND A TOTAL OF          5 INNER ITERATIONS.
    ------------------------------------------------

 NO OUTPUT CONTROL FOR STRESS PERIOD   13   TIME STEP   21
 
 SOLVING FOR HEAD 
                                                   Max.-Head-Change                         Max.-Flux-Residual
  Residual-Control   Outer-Iter.   Inner-Iter.     Column Row Layer    Maximum-Head-Change  Column Row Layer    Maximum-Flux-Residual          L2-NORM 
          0                 1           2             4    7     1       0.8104854167E-02       4    7    1         0.4262500026E+00      0.9878243406E+00
          0                 2           2             4    7     1      -0.7883827121E-03       4    7    1        -0.4262509558E-01      0.9809001033E-01
          0                 3           1             4    7     1       0.5368592691E-04       4    7    1         0.2983757051E-02      0.6879824606E-02

    ------------------------------------------------
       NWT REQUIRED            3 OUTER ITERATIONS 
       AND A TOTAL OF          5 INNER ITERATIONS.
    ------------------------------------------------

 NO OUTPUT CONTROL FOR STRESS PERIOD   13   TIME STEP   22
 
 SOLVING FOR HEAD 
                                                   Max.-Head-Change                         Max.-Flux-Residual
  Residual-Control   Outer-Iter.   Inner-Iter.     Column Row Layer    Maximum-Head-Change  Column Row Layer    Maximum-Flux-Residual          L2-NORM 
          0                 1           2             4    7     1       0.8014049436E-02       4    7    1         0.4214514704E+00      0.9788130635E+00
          0                 2           2             4    7     1      -0.7795498550E-03       4    7    1        -0.4214524012E-01      0.9718645917E-01
          0                 3           1             4    7     1       0.5308444285E-04       4    7    1         0.2950167201E-02      0.6816680925E-02

    ------------------------------------------------
       NWT REQUIRED            3 OUTER ITERATIONS 
       AND A TOTAL OF          5 INNER ITERATIONS.
    ------------------------------------------------

 NO OUTPUT CONTROL FOR STRESS PERIOD   13   TIME STEP   23
 
 SOLVING FOR HEAD 
                                                   Max.-Head-Change                         Max.-Flux-Residual
  Residual-Control   Outer-Iter.   Inner-Iter.     Column Row Layer    Maximum-Head-Change  Column Row Layer    Maximum-Flux-Residual          L2-NORM 
          0                 1           2             4    7     1       0.7924602187E-02       4    7    1         0.4167249747E+00      0.9699306226E+00
          0                 2           2             4    7     1      -0.7708490442E-03       4    7    1        -0.4167258834E-01      0.9629612365E-01
          0                 3           1             4    7     1       0.5249195049E-04       4    7    1         0.2917081585E-02      0.6754432398E-02

    ------------------------------------------------
       NWT REQUIRED            3 OUTER ITERATIONS 
       AND A TOTAL OF          5 INNER ITERATIONS.
    ------------------------------------------------

 NO OUTPUT CONTROL FOR STRESS PERIOD   13   TIME STEP   24
 
 SOLVING FOR HEAD 
                                                   Max.-Head-Change                         Max.-Flux-Residual
  Residual-Control   Outer-Iter.   Inner-Iter.     Column Row Layer    Maximum-Head-Change  Column Row Layer    Maximum-Flux-Residual          L2-NORM 
          0                 1           2             4    7     1       0.7836492607E-02       4    7    1         0.4120689158E+00      0.9611937535E+00
          0                 2           2             4    7     1      -0.7622783529E-03       4    7    1        -0.4120698031E-01      0.9542099117E-01
          0                 3           1             4    7     1       0.5190831822E-04       4    7    1         0.2884489027E-02      0.6693288777E-02

    ------------------------------------------------
       NWT REQUIRED            3 OUTER ITERATIONS 
       AND A TOTAL OF          5 INNER ITERATIONS.
    ------------------------------------------------

 NO OUTPUT CONTROL FOR STRESS PERIOD   13   TIME STEP   25
 
 SOLVING FOR HEAD 
                                                   Max.-Head-Change                         Max.-Flux-Residual
  Residual-Control   Outer-Iter.   Inner-Iter.     Column Row Layer    Maximum-Head-Change  Column Row Layer    Maximum-Flux-Residual          L2-NORM 
          0                 1           2             4    7     1       0.7749690431E-02       4    7    1         0.4074822660E+00      0.9525815284E+00
          0                 2           2             4    7     1      -0.7538348369E-03       4    7    1        -0.4074831323E-01      0.9455907932E-01
          0                 3           1             4    7     1       0.5133334631E-04       4    7    1         0.2852382331E-02      0.6633076728E-02

    ------------------------------------------------
       NWT REQUIRED            3 OUTER ITERATIONS 
       AND A TOTAL OF          5 INNER ITERATIONS.
    ------------------------------------------------

 NO OUTPUT CONTROL FOR STRESS PERIOD   13   TIME STEP   26
 
 SOLVING FOR HEAD 
                                                   Max.-Head-Change                         Max.-Flux-Residual
  Residual-Control   Outer-Iter.   Inner-Iter.     Column Row Layer    Maximum-Head-Change  Column Row Layer    Maximum-Flux-Residual          L2-NORM 
          0                 1           2             4    7     1       0.7664448084E-02       4    7    1         0.4029782486E+00      0.9441051427E+00
          0                 2           2             4    7     1      -0.7455430511E-03       4    7    1        -0.4029790946E-01      0.9371144285E-01
          0                 3           1             4    7     1       0.5076870684E-04       4    7    1         0.2820854093E-02      0.6573863051E-02

    ------------------------------------------------
       NWT REQUIRED            3 OUTER ITERATIONS 
       AND A TOTAL OF          5 INNER ITERATIONS.
    ------------------------------------------------

 NO OUTPUT CONTROL FOR STRESS PERIOD   13   TIME STEP   27
 
 SOLVING FOR HEAD 
                                                   Max.-Head-Change                         Max.-Flux-Residual
  Residual-Control   Outer-Iter.   Inner-Iter.     Column Row Layer    Maximum-Head-Change  Column Row Layer    Maximum-Flux-Residual          L2-NORM 
          0                 1           2             4    7     1       0.7580451852E-02       4    7    1         0.3985403738E+00      0.9357576973E+00
          0                 2           2             4    7     1      -0.7373724788E-03       4    7    1        -0.3985412001E-01      0.9287424064E-01
          0                 3           1             4    7     1       0.5021232135E-04       4    7    1         0.2789788822E-02      0.6515383461E-02

    ------------------------------------------------
       NWT REQUIRED            3 OUTER ITERATIONS 
       AND A TOTAL OF          5 INNER ITERATIONS.
    ------------------------------------------------

 NO OUTPUT CONTROL FOR STRESS PERIOD   13   TIME STEP   28
 
 SOLVING FOR HEAD 
                                                   Max.-Head-Change                         Max.-Flux-Residual
  Residual-Control   Outer-Iter.   Inner-Iter.     Column Row Layer    Maximum-Head-Change  Column Row Layer    Maximum-Flux-Residual          L2-NORM 
          0                 1           2             4    7     1       0.7497687158E-02       4    7    1         0.3941671572E+00      0.9275255015E+00
          0                 2           2             4    7     1      -0.7293217018E-03       4    7    1        -0.3941679639E-01      0.9204835594E-01
          0                 3           1             4    7     1       0.4966409351E-04       4    7    1         0.2759176166E-02      0.6457667685E-02

    ------------------------------------------------
       NWT REQUIRED            3 OUTER ITERATIONS 
       AND A TOTAL OF          5 INNER ITERATIONS.
    ------------------------------------------------

 NO OUTPUT CONTROL FOR STRESS PERIOD   13   TIME STEP   29
 
 SOLVING FOR HEAD 
                                                   Max.-Head-Change                         Max.-Flux-Residual
  Residual-Control   Outer-Iter.   Inner-Iter.     Column Row Layer    Maximum-Head-Change  Column Row Layer    Maximum-Flux-Residual          L2-NORM 
          0                 1           2             4    7     1       0.7416391423E-02       4    7    1         0.3898726376E+00      0.9194147508E+00
          0                 2           2             4    7     1      -0.7223749212E-03       4    7    1        -0.3905356763E-01      0.9125622902E-01
          0                 3           1             4    7     1       0.4919104233E-04       4    7    1         0.2733750062E-02      0.6402322871E-02

    ------------------------------------------------
       NWT REQUIRED            3 OUTER ITERATIONS 
       AND A TOTAL OF          5 INNER ITERATIONS.
    ------------------------------------------------

 NO OUTPUT CONTROL FOR STRESS PERIOD   13   TIME STEP   30



 STREAM LISTING     PERIOD     13   STEP       30

 LAYER ROW COL. STREAM  RCH.  FLOW INTO     FLOW TO   FLOW OUT OF   OVRLND.     DIRECT     STREAM       STREAM     STREAM     STREAM   STREAMBED  STREAMBED
                SEG.NO.  NO.  STRM. RCH.    AQUIFER    STRM. RCH.    RUNOFF     PRECIP       ET          HEAD       DEPTH      WIDTH   CONDCTNC.   GRADIENT

   1    1    1     1     1    2.3000E+01  2.3574E-01   2.2764E+01  0.000E+00  0.000E+00  0.000E+00  1.09420E+03  1.148E+00  1.263E+01  5.684E-02  1.383E+00
   1    2    2     1     2    2.2764E+01  3.6445E-01   2.2400E+01  0.000E+00  0.000E+00  0.000E+00  1.08920E+03  1.143E+00  1.257E+01  8.797E-02  1.381E+00
   1    3    3     1     3    2.2400E+01  3.1020E-01   2.2090E+01  0.000E+00  0.000E+00  0.000E+00  1.08356E+03  1.138E+00  1.250E+01  7.497E-02  1.379E+00
   1    3    4     1     4    2.2090E+01  2.8513E-01   2.1804E+01  0.000E+00  0.000E+00  0.000E+00  1.07854E+03  1.133E+00  1.243E+01  6.899E-02  1.378E+00
   1    4    5     2     1    1.9804E+01  3.1551E-01   1.9489E+01  0.000E+00  0.000E+00  0.000E+00  1.07298E+03  1.045E+00  1.200E+01  7.800E-02  1.348E+00
   1    5    6     2     2    1.9489E+01  2.4216E-01   1.9247E+01  0.000E+00  0.000E+00  0.000E+00  1.06755E+03  1.036E+00  1.200E+01  6.000E-02  1.345E+00
   1    6    6     2     3    1.9247E+01  2.4170E-01   1.9005E+01  0.000E+00  0.000E+00  0.000E+00  1.06282E+03  1.028E+00  1.200E+01  6.000E-02  1.343E+00
   1    7    6     2     4    1.9005E+01  2.4123E-01   1.8764E+01  0.000E+00  0.000E+00  0.000E+00  1.05810E+03  1.020E+00  1.200E+01  6.000E-02  1.340E+00
   1    8    6     2     5    1.8764E+01  2.4076E-01   1.8523E+01  0.000E+00  0.000E+00  0.000E+00  1.05337E+03  1.013E+00  1.200E+01  6.000E-02  1.338E+00
   1    3    5     3     1    2.0000E+00  2.8252E-01   1.7175E+00  0.000E+00  0.000E+00  0.000E+00  1.07555E+03  1.909E+00  9.636E+00  7.227E-02  1.955E+00
   1    3    6     3     2    1.7175E+00  2.4905E-01   1.4684E+00  0.000E+00  0.000E+00  0.000E+00  1.07264E+03  1.727E+00  8.909E+00  6.682E-02  1.864E+00
   1    3    7     3     3    1.4684E+00  1.9718E-01   1.2712E+00  0.000E+00  0.000E+00  0.000E+00  1.06987E+03  1.555E+00  8.218E+00  5.547E-02  1.777E+00
   1    4    8     3     4    1.2712E+00  2.2567E-01   1.0456E+00  0.000E+00  0.000E+00  0.000E+00  1.06682E+03  1.364E+00  7.455E+00  6.709E-02  1.682E+00
   1    5    8     3     5    1.0456E+00  1.5790E-01   8.8768E-01  0.000E+00  0.000E+00  0.000E+00  1.06362E+03  1.164E+00  6.655E+00  4.991E-02  1.582E+00
   1    6    8     3     6    8.8768E-01  5.5980E-02   8.3170E-01  0.000E+00  0.000E+00  0.000E+00  1.06158E+03  1.036E+00  6.145E+00  1.844E-02  1.518E+00
   1    5   10     4     1    1.0000E+01  9.0919E-02   9.9091E+00  0.000E+00  0.000E+00  0.000E+00  1.07836E+03  6.368E-01  1.000E+01  2.500E-02  1.212E+00
   1    5    9     4     2    9.9091E+00  1.8158E-01   9.7275E+00  0.000E+00  0.000E+00  0.000E+00  1.07154E+03  6.315E-01  1.000E+01  5.000E-02  1.211E+00
   1    6    8     4     3    9.7275E+00  1.2689E-01   9.6006E+00  0.000E+00  0.000E+00  0.000E+00  1.06381E+03  6.256E-01  1.000E+01  3.500E-02  1.209E+00
   1    6    8     5     1    1.0432E+01  2.2686E-01   1.0205E+01  0.000E+00  0.000E+00  0.000E+00  1.05868E+03  6.790E-01  1.542E+01  6.166E-02  1.226E+00
   1    7    7     5     2    1.0205E+01  2.7894E-01   9.9265E+00  0.000E+00  0.000E+00  0.000E+00  1.05417E+03  6.732E-01  1.519E+01  7.594E-02  1.224E+00
   1    8    7     5     3    9.9265E+00  1.9221E-01   9.7343E+00  0.000E+00  0.000E+00  0.000E+00  1.04992E+03  6.676E-01  1.497E+01  5.241E-02  1.223E+00
   1    8    6     5     4    9.7343E+00  1.3577E-01   9.5985E+00  0.000E+00  0.000E+00  0.000E+00  1.04691E+03  6.637E-01  1.482E+01  3.706E-02  1.221E+00
   1    9    6     6     1    2.8122E+01  2.5841E-01   2.7863E+01  0.000E+00  0.000E+00  0.000E+00  1.04403E+03  1.307E+00  1.200E+01  6.000E-02  1.436E+00
   1   10    7     6     2    2.7863E+01  2.5797E-01   2.7605E+01  0.000E+00  0.000E+00  0.000E+00  1.03948E+03  1.300E+00  1.200E+01  6.000E-02  1.433E+00
   1   11    7     6     3    2.7605E+01  2.5754E-01   2.7348E+01  0.000E+00  0.000E+00  0.000E+00  1.03493E+03  1.292E+00  1.200E+01  6.000E-02  1.431E+00
   1   12    7     6     4    2.7348E+01  2.5710E-01   2.7091E+01  0.000E+00  0.000E+00  0.000E+00  1.03038E+03  1.285E+00  1.200E+01  6.000E-02  1.428E+00
   1   13    7     6     5    2.7091E+01  1.6856E-03   2.7089E+01  0.000E+00  0.000E+00  0.000E+00  1.02719E+03  1.281E+00  1.200E+01  2.400E-02  2.341E-02
   1   14    9     7     1    1.5000E+02  1.3335E+00   1.4867E+02  0.000E+00  0.000E+00  0.000E+00  1.03987E+03  2.288E+00  5.529E+01  5.593E-01  7.948E-01
   1   13    8     7     2    1.4867E+02  1.8209E+00   1.4685E+02  0.000E+00  0.000E+00  0.000E+00  1.03478E+03  2.279E+00  5.526E+01  6.148E-01  9.873E-01
   1   13    7     7     3    1.4685E+02  1.4351E+00   1.4541E+02  0.000E+00  0.000E+00  0.000E+00  1.02969E+03  2.271E+00  5.522E+01  5.585E-01  8.566E-01
   1   13    6     8     1    1.7250E+02  9.0028E-01   1.7160E+02  0.000E+00  0.000E+00  0.000E+00  1.02484E+03  2.965E+00  4.300E+01  4.382E-01  6.849E-01
   1   13    5     8     2    1.7160E+02  1.5141E-01   1.7145E+02  0.000E+00  0.000E+00  0.000E+00  1.01859E+03  2.962E+00  4.295E+01  4.377E-01  1.153E-01
   1   13    4     8     3    1.7145E+02 -2.5433E+00   1.7399E+02  0.000E+00  0.000E+00  0.000E+00  1.01234E+03  2.970E+00  4.306E+01  4.388E+00 -1.932E-01
   1   13    3     8     4    1.7399E+02 -3.7076E+00   1.7770E+02  0.000E+00  0.000E+00  0.000E+00  1.00611E+03  2.990E+00  4.335E+01  4.418E+00 -2.797E-01
   1   13    2     8     5    1.7770E+02 -2.5923E+00   1.8029E+02  0.000E+00  0.000E+00  0.000E+00  9.99885E+02  3.010E+00  4.364E+01  4.447E+00 -1.943E-01
   1   13    1     8     6    1.8029E+02 -1.9880E+00   1.8228E+02  0.000E+00  0.000E+00  0.000E+00  9.94899E+02  3.024E+00  4.385E+01  2.681E+00 -2.472E-01





UNSATURATED ZONE PACKAGE VOLUMETRIC BUDGET FOR  TIME STEP    30 STRESS PERIOD   13
  ------------------------------------------------------------------------------



     CUMULATIVE VOLUMES      L**3       RATES FOR THIS TIME STEP      L**3/T
     ------------------                 ------------------------

           IN:                                      IN:
           ---                                      ---
        INFILTRATION =   196572669.6343          INFILTRATION =           0.8475

          OUT:                                     OUT:
          ----                                     ----
              UZF ET =    93730067.2525                UZF ET =           0.0329
        UZF RECHARGE =     8560268.2984          UZF RECHARGE =           0.0584

            IN - OUT =    94282334.0833              IN - OUT =           0.7562

          STORAGE:                                 STORAGE:
          --------                                 --------
      STORAGE CHANGE =    94344544.3728        STORAGE CHANGE =           0.7562

 PERCENT DISCREPANCY IS DIFFERENCE BETWEEN IN-OUT MINUS CHANGE IN STORAGE
 DIVIDED BY THE AVERAGE OF IN AND OUT TIMES 100

 PERCENT DISCREPANCY =          -0.01     PERCENT DISCREPANCY =          -0.00






1
  VOLUMETRIC BUDGET FOR ENTIRE MODEL AT END OF TIME STEP   30, STRESS PERIOD  13
  ------------------------------------------------------------------------------

     CUMULATIVE VOLUMES      L**3       RATES FOR THIS TIME STEP      L**3/T
     ------------------                 ------------------------

           IN:                                      IN:
           ---                                      ---
               AWU WELLS =   169772608.0000                 AWU WELLS =           0.0000
      DIVERSION SEGMENTS =           0.0000        DIVERSION SEGMENTS =           0.0000
           GW IRRIGATION =           0.0000             GW IRRIGATION =           0.0000
           SW IRRIGATION =           0.0000             SW IRRIGATION =           0.0000
        SYSTEM LOSSES GW =           0.0000          SYSTEM LOSSES GW =           0.0000
        SYSTEM LOSSES SW =           0.0000          SYSTEM LOSSES SW =           0.0000

                TOTAL IN =   169772608.0000                  TOTAL IN =           0.0000

          OUT:                                     OUT:
          ----                                     ----
               AWU WELLS =           0.0000                 AWU WELLS =           0.0000
      DIVERSION SEGMENTS =           0.0000        DIVERSION SEGMENTS =           0.0000
           GW IRRIGATION =   169772608.0000             GW IRRIGATION =           0.0000
           SW IRRIGATION =           0.0000             SW IRRIGATION =           0.0000
        SYSTEM LOSSES GW =           0.0000          SYSTEM LOSSES GW =           0.0000
        SYSTEM LOSSES SW =           0.0000          SYSTEM LOSSES SW =           0.0000

               TOTAL OUT =   169772608.0000                 TOTAL OUT =           0.0000

                IN - OUT =           0.0000                  IN - OUT =           0.0000

     PERCENT DISCREPANCY =           0.00         PERCENT DISCREPANCY =           0.00



1
  VOLUMETRIC BUDGET FOR ENTIRE MODEL AT END OF TIME STEP   30, STRESS PERIOD  13
  ------------------------------------------------------------------------------

     CUMULATIVE VOLUMES      L**3       RATES FOR THIS TIME STEP      L**3/T
     ------------------                 ------------------------

           IN:                                      IN:
           ---                                      ---
             STORAGE     =   286187328.0000               STORAGE     =           2.4570
       CONSTANT HEAD     =           0.0000         CONSTANT HEAD     =           0.0000
     HEAD DEP BOUNDS     =     9034016.0000       HEAD DEP BOUNDS     =           0.2856
      STREAM LEAKAGE     =   401441440.0000        STREAM LEAKAGE     =          11.5523
        UZF RECHARGE     =     8560273.0000          UZF RECHARGE     =       5.8433E-02
               GW ET     =           0.0000                 GW ET     =           0.0000
     SURFACE LEAKAGE     =           0.0000       SURFACE LEAKAGE     =           0.0000
           AWU WELLS     =           0.0000             AWU WELLS     =           0.0000

                TOTAL IN =   705223040.0000                  TOTAL IN =          14.3533

          OUT:                                     OUT:
          ----                                     ----
             STORAGE     =   173051520.0000               STORAGE     =           3.2221
       CONSTANT HEAD     =           0.0000         CONSTANT HEAD     =           0.0000
     HEAD DEP BOUNDS     =     9179521.0000       HEAD DEP BOUNDS     =           0.2903
      STREAM LEAKAGE     =   298049024.0000        STREAM LEAKAGE     =          10.8311
        UZF RECHARGE     =           0.0000          UZF RECHARGE     =           0.0000
               GW ET     =    55175600.0000                 GW ET     =       9.8181E-03
     SURFACE LEAKAGE     =           0.0000       SURFACE LEAKAGE     =           0.0000
           AWU WELLS     =   169772608.0000             AWU WELLS     =           0.0000

               TOTAL OUT =   705228288.0000                 TOTAL OUT =          14.3534

                IN - OUT =       -5248.0000                  IN - OUT =      -1.4210E-04

     PERCENT DISCREPANCY =          -0.00         PERCENT DISCREPANCY =          -0.00






         TIME SUMMARY AT END OF TIME STEP   30 IN STRESS PERIOD   13
                    SECONDS     MINUTES      HOURS       DAYS        YEARS
                    -----------------------------------------------------------
   TIME STEP LENGTH  87600.      1460.0      24.333      1.0139     2.77588E-03
 STRESS PERIOD TIME 2.62800E+06  43800.      730.00      30.417     8.32763E-02
         TOTAL TIME 3.16224E+07 5.27040E+05  8784.0      366.00      1.0021    
1
1
                            STRESS PERIOD NO.   14, LENGTH =   2628000.    
                            -----------------------------------------------

                              NUMBER OF TIME STEPS =    30

                               MULTIPLIER FOR DELT =     1.000

                            INITIAL TIME STEP SIZE =   87600.00    

 REUSING NON-PARAMETER GHB CELLS FROM LAST STRESS PERIOD

      2 GHB CELLS

 REUSING STREAM SEGMENT DATA FROM LAST STRESS PERIOD



            AREAL INFILTRATION RATE
 READING ON UNIT   19 WITH FORMAT: (10F4.0)            

            1           2           3           4           5           6           7           8           9          10
 ........................................................................................................................
   1   1.0000E-10  2.0000E-10   0.000       0.000       0.000       0.000       0.000       0.000       0.000       0.000    
   2   2.0000E-10  1.0000E-10  2.0000E-10   0.000       0.000      8.0000E-10  8.0000E-10  5.0000E-10   0.000       0.000    
   3    0.000      5.0000E-10  1.0000E-10  1.0000E-10  8.0000E-10  8.0000E-10  5.0000E-10  5.0000E-10   0.000       0.000    
   4   8.0000E-10  5.0000E-10  1.0000E-10  1.0000E-10  1.0000E-10  1.0000E-10  1.0000E-10  1.0000E-10  2.0000E-10   0.000    
   5   8.0000E-10  5.0000E-10  1.0000E-10  1.0000E-10  1.0000E-10  1.0000E-10  1.0000E-10  1.0000E-10  1.0000E-10  1.0000E-10
   6   8.0000E-10  5.0000E-10  5.0000E-10  2.0000E-10  2.0000E-10  1.0000E-10  1.0000E-10  1.0000E-10  1.0000E-10  5.0000E-10
   7   8.0000E-10  5.0000E-10  5.0000E-10  2.0000E-10  2.0000E-10  1.0000E-10  1.0000E-10  2.0000E-10  2.0000E-10   0.000    
   8    0.000      5.0000E-10  5.0000E-10  2.0000E-10  2.0000E-10  1.0000E-10  1.0000E-10  2.0000E-10  5.0000E-10   0.000    
   9    0.000      5.0000E-10  5.0000E-10  2.0000E-10  2.0000E-10  1.0000E-10  1.0000E-10  2.0000E-10  5.0000E-10   0.000    
  10    0.000      5.0000E-10  5.0000E-10  2.0000E-10  2.0000E-10  1.0000E-10  1.0000E-10  2.0000E-10  5.0000E-10  8.0000E-10
  11    0.000      1.0000E-10  1.0000E-10  1.0000E-10  1.0000E-10  1.0000E-10  1.0000E-10  2.0000E-10  5.0000E-10   0.000    
  12   1.0000E-10  1.0000E-10  1.0000E-10  1.0000E-10  1.0000E-10  1.0000E-10  1.0000E-10  1.0000E-10  2.0000E-10   0.000    
  13   1.0000E-10  1.0000E-10  2.0000E-10  2.0000E-10  2.0000E-10  2.0000E-10  2.0000E-10  1.0000E-10  1.0000E-10   0.000    
  14    0.000      2.0000E-10  5.0000E-10  5.0000E-10  5.0000E-10  5.0000E-10  5.0000E-10  2.0000E-10  1.0000E-10   0.000    
  15    0.000       0.000      8.0000E-10  8.0000E-10  8.0000E-10  8.0000E-10   0.000       0.000       0.000       0.000    

                  ET RATE =  1.000000E-10

 USING ET EXTINCTION DEPTH FROM PREVIOUS STRESS PERIOD. CURRENT PERIOD IS:      14

 USING EXTINCTION WATER CONTENT FROM PREVIOUS STRESS PERIOD. CURRENT PERIOD IS:      14

 PROCESSING AWU STRESS PERIOD DATA

 READING AWU STRESS PERIOD DATA

 READING IRRIGATION WELL

 END PROCESSING AWU STRESS PERIOD DATA OPTIONS
 
 SOLVING FOR HEAD 
                                                   Max.-Head-Change                         Max.-Flux-Residual
  Residual-Control   Outer-Iter.   Inner-Iter.     Column Row Layer    Maximum-Head-Change  Column Row Layer    Maximum-Flux-Residual          L2-NORM 
          0                 1           2             4    7     1       0.7333252668E-02       4    7    1         0.3855882328E+00      0.9122242905E+00
          0                 2           2             4    7     1      -0.7133267893E-03       4    7    1        -0.3855890961E-01      0.9052146569E-01
          0                 3           1             4    7     1       0.4857489826E-04       4    7    1         0.2699124015E-02      0.6350794662E-02

    ------------------------------------------------
       NWT REQUIRED            3 OUTER ITERATIONS 
       AND A TOTAL OF          5 INNER ITERATIONS.
    ------------------------------------------------

 NO OUTPUT CONTROL FOR STRESS PERIOD   14   TIME STEP    1
 
 SOLVING FOR HEAD 
                                                   Max.-Head-Change                         Max.-Flux-Residual
  Residual-Control   Outer-Iter.   Inner-Iter.     Column Row Layer    Maximum-Head-Change  Column Row Layer    Maximum-Flux-Residual          L2-NORM 
          0                 1           2             4    7     1       0.7252648752E-02       4    7    1         0.3813255765E+00      0.9231816860E+00
          0                 2           2             4    7     1      -0.7054861928E-03       4    7    1        -0.3813264170E-01      0.9208784354E-01
          0                 3           1             4    7     1       0.4804098324E-04       4    7    1         0.2669285282E-02      0.6423698675E-02

    ------------------------------------------------
       NWT REQUIRED            3 OUTER ITERATIONS 
       AND A TOTAL OF          5 INNER ITERATIONS.
    ------------------------------------------------

 NO OUTPUT CONTROL FOR STRESS PERIOD   14   TIME STEP    2
 
 SOLVING FOR HEAD 
                                                   Max.-Head-Change                         Max.-Flux-Residual
  Residual-Control   Outer-Iter.   Inner-Iter.     Column Row Layer    Maximum-Head-Change  Column Row Layer    Maximum-Flux-Residual          L2-NORM 
          0                 1           2             4    7     1       0.7173278211E-02       4    7    1         0.3771283814E+00      0.9135266605E+00
          0                 2           2             4    7     1      -0.6977655707E-03       4    7    1        -0.3771291997E-01      0.9068300709E-01
          0                 3           1             4    7     1       0.4751523795E-04       4    7    1         0.2639904766E-02      0.6355981090E-02

    ------------------------------------------------
       NWT REQUIRED            3 OUTER ITERATIONS 
       AND A TOTAL OF          5 INNER ITERATIONS.
    ------------------------------------------------

 NO OUTPUT CONTROL FOR STRESS PERIOD   14   TIME STEP    3
 
 SOLVING FOR HEAD 
                                                   Max.-Head-Change                         Max.-Flux-Residual
  Residual-Control   Outer-Iter.   Inner-Iter.     Column Row Layer    Maximum-Head-Change  Column Row Layer    Maximum-Flux-Residual          L2-NORM 
          0                 1           2             4    7     1       0.7095117672E-02       4    7    1         0.3729951837E+00      0.9041101146E+00
          0                 2           2             4    7     1      -0.6901626501E-03       4    7    1        -0.3729959805E-01      0.8974855203E-01
          0                 3           1             4    7     1       0.4699750759E-04       4    7    1         0.2610972252E-02      0.6290887309E-02

    ------------------------------------------------
       NWT REQUIRED            3 OUTER ITERATIONS 
       AND A TOTAL OF          5 INNER ITERATIONS.
    ------------------------------------------------

 NO OUTPUT CONTROL FOR STRESS PERIOD   14   TIME STEP    4
 
 SOLVING FOR HEAD 
                                                   Max.-Head-Change                         Max.-Flux-Residual
  Residual-Control   Outer-Iter.   Inner-Iter.     Column Row Layer    Maximum-Head-Change  Column Row Layer    Maximum-Flux-Residual          L2-NORM 
          0                 1           2             4    7     1       0.7018399463E-02       4    7    1         0.3689395663E+00      0.8950319675E+00
          0                 2           2             4    7     1      -0.6827000299E-03       4    7    1        -0.3689403425E-01      0.8884698859E-01
          0                 3           1             4    7     1       0.4648933102E-04       4    7    1         0.2582582789E-02      0.6228609484E-02

    ------------------------------------------------
       NWT REQUIRED            3 OUTER ITERATIONS 
       AND A TOTAL OF          5 INNER ITERATIONS.
    ------------------------------------------------

 NO OUTPUT CONTROL FOR STRESS PERIOD   14   TIME STEP    5
 
 SOLVING FOR HEAD 
                                                   Max.-Head-Change                         Max.-Flux-Residual
  Residual-Control   Outer-Iter.   Inner-Iter.     Column Row Layer    Maximum-Head-Change  Column Row Layer    Maximum-Flux-Residual          L2-NORM 
          0                 1           2             4    7     1       0.6943100716E-02       4    7    1         0.3649587888E+00      0.8862686120E+00
          0                 2           2             4    7     1      -0.6753754854E-03       4    7    1        -0.3649595448E-01      0.8797538849E-01
          0                 3           1             4    7     1       0.4599055654E-04       4    7    1         0.2554717192E-02      0.6168549047E-02

    ------------------------------------------------
       NWT REQUIRED            3 OUTER ITERATIONS 
       AND A TOTAL OF          5 INNER ITERATIONS.
    ------------------------------------------------

 NO OUTPUT CONTROL FOR STRESS PERIOD   14   TIME STEP    6
 
 SOLVING FOR HEAD 
                                                   Max.-Head-Change                         Max.-Flux-Residual
  Residual-Control   Outer-Iter.   Inner-Iter.     Column Row Layer    Maximum-Head-Change  Column Row Layer    Maximum-Flux-Residual          L2-NORM 
          0                 1           2             4    7     1       0.6868625246E-02       4    7    1         0.3610220720E+00      0.8777574749E+00
          0                 2           2             4    7     1      -0.6681310244E-03       4    7    1        -0.3610228086E-01      0.8712796352E-01
          0                 3           1             4    7     1       0.4549723596E-04       4    7    1         0.2527160056E-02      0.6110363813E-02

    ------------------------------------------------
       NWT REQUIRED            3 OUTER ITERATIONS 
       AND A TOTAL OF          5 INNER ITERATIONS.
    ------------------------------------------------

 NO OUTPUT CONTROL FOR STRESS PERIOD   14   TIME STEP    7
 
 SOLVING FOR HEAD 
                                                   Max.-Head-Change                         Max.-Flux-Residual
  Residual-Control   Outer-Iter.   Inner-Iter.     Column Row Layer    Maximum-Head-Change  Column Row Layer    Maximum-Flux-Residual          L2-NORM 
          0                 1           2             4    7     1       0.6795517613E-02       4    7    1         0.3571576658E+00      0.8695029139E+00
          0                 2           2             4    7     1      -0.6610196169E-03       4    7    1        -0.3571583833E-01      0.8630509288E-01
          0                 3           1             4    7     1       0.4501297594E-04       4    7    1         0.2500109075E-02      0.6053084996E-02

    ------------------------------------------------
       NWT REQUIRED            3 OUTER ITERATIONS 
       AND A TOTAL OF          5 INNER ITERATIONS.
    ------------------------------------------------

 NO OUTPUT CONTROL FOR STRESS PERIOD   14   TIME STEP    8
 
 SOLVING FOR HEAD 
                                                   Max.-Head-Change                         Max.-Flux-Residual
  Residual-Control   Outer-Iter.   Inner-Iter.     Column Row Layer    Maximum-Head-Change  Column Row Layer    Maximum-Flux-Residual          L2-NORM 
          0                 1           2             4    7     1       0.6723734412E-02       4    7    1         0.3533642346E+00      0.8614748920E+00
          0                 2           2             4    7     1      -0.6540370425E-03       4    7    1        -0.3533649340E-01      0.8550416175E-01
          0                 3           1             4    7     1       0.4453748868E-04       4    7    1         0.2473554953E-02      0.5997720386E-02

    ------------------------------------------------
       NWT REQUIRED            3 OUTER ITERATIONS 
       AND A TOTAL OF          5 INNER ITERATIONS.
    ------------------------------------------------

 NO OUTPUT CONTROL FOR STRESS PERIOD   14   TIME STEP    9
 
 SOLVING FOR HEAD 
                                                   Max.-Head-Change                         Max.-Flux-Residual
  Residual-Control   Outer-Iter.   Inner-Iter.     Column Row Layer    Maximum-Head-Change  Column Row Layer    Maximum-Flux-Residual          L2-NORM 
          0                 1           2             4    7     1       0.6652970006E-02       4    7    1         0.3496247284E+00      0.8536365624E+00
          0                 2           2             4    7     1      -0.6471535692E-03       4    7    1        -0.3496254101E-01      0.8472129943E-01
          0                 3           1             4    7     1       0.4406874993E-04       4    7    1         0.2447378278E-02      0.5943098101E-02

    ------------------------------------------------
       NWT REQUIRED            3 OUTER ITERATIONS 
       AND A TOTAL OF          5 INNER ITERATIONS.
    ------------------------------------------------

 NO OUTPUT CONTROL FOR STRESS PERIOD   14   TIME STEP   10
 
 SOLVING FOR HEAD 
                                                   Max.-Head-Change                         Max.-Flux-Residual
  Residual-Control   Outer-Iter.   Inner-Iter.     Column Row Layer    Maximum-Head-Change  Column Row Layer    Maximum-Flux-Residual          L2-NORM 
          0                 1           2             4    7     1       0.6583474106E-02       4    7    1         0.3459528828E+00      0.8460019574E+00
          0                 2           2             4    7     1      -0.6403934880E-03       4    7    1        -0.3459535475E-01      0.8395820997E-01
          0                 3           1             4    7     1       0.4360841379E-04       4    7    1         0.2421675242E-02      0.5890025460E-02

    ------------------------------------------------
       NWT REQUIRED            3 OUTER ITERATIONS 
       AND A TOTAL OF          5 INNER ITERATIONS.
    ------------------------------------------------

 NO OUTPUT CONTROL FOR STRESS PERIOD   14   TIME STEP   11
 
 SOLVING FOR HEAD 
                                                   Max.-Head-Change                         Max.-Flux-Residual
  Residual-Control   Outer-Iter.   Inner-Iter.     Column Row Layer    Maximum-Head-Change  Column Row Layer    Maximum-Flux-Residual          L2-NORM 
          0                 1           2             4    7     1       0.6514945410E-02       4    7    1         0.3423320601E+00      0.8385268808E+00
          0                 2           2             4    7     1      -0.6337274904E-03       4    7    1        -0.3423327082E-01      0.8321090600E-01
          0                 3           1             4    7     1       0.4315448416E-04       4    7    1         0.2396329380E-02      0.5838109357E-02

    ------------------------------------------------
       NWT REQUIRED            3 OUTER ITERATIONS 
       AND A TOTAL OF          5 INNER ITERATIONS.
    ------------------------------------------------

 NO OUTPUT CONTROL FOR STRESS PERIOD   14   TIME STEP   12
 
 SOLVING FOR HEAD 
                                                   Max.-Head-Change                         Max.-Flux-Residual
  Residual-Control   Outer-Iter.   Inner-Iter.     Column Row Layer    Maximum-Head-Change  Column Row Layer    Maximum-Flux-Residual          L2-NORM 
          0                 1           2             4    7     1       0.6447360941E-02       4    7    1         0.3387614237E+00      0.8312130366E+00
          0                 2           2             4    7     1      -0.6271533403E-03       4    7    1        -0.3387620554E-01      0.8247923948E-01
          0                 3           1             4    7     1       0.4270680933E-04       4    7    1         0.2371334813E-02      0.5787169861E-02

    ------------------------------------------------
       NWT REQUIRED            3 OUTER ITERATIONS 
       AND A TOTAL OF          5 INNER ITERATIONS.
    ------------------------------------------------

 NO OUTPUT CONTROL FOR STRESS PERIOD   14   TIME STEP   13
 
 SOLVING FOR HEAD 
                                                   Max.-Head-Change                         Max.-Flux-Residual
  Residual-Control   Outer-Iter.   Inner-Iter.     Column Row Layer    Maximum-Head-Change  Column Row Layer    Maximum-Flux-Residual          L2-NORM 
          0                 1           2             4    7     1       0.6380974556E-02       4    7    1         0.3352545790E+00      0.8240503062E+00
          0                 2           2             4    7     1      -0.6206957324E-03       4    7    1        -0.3352551952E-01      0.8176255934E-01
          0                 3           1             4    7     1       0.4226707063E-04       4    7    1         0.2346786810E-02      0.5737306015E-02

    ------------------------------------------------
       NWT REQUIRED            3 OUTER ITERATIONS 
       AND A TOTAL OF          5 INNER ITERATIONS.
    ------------------------------------------------

 NO OUTPUT CONTROL FOR STRESS PERIOD   14   TIME STEP   14
 
 SOLVING FOR HEAD 
                                                   Max.-Head-Change                         Max.-Flux-Residual
  Residual-Control   Outer-Iter.   Inner-Iter.     Column Row Layer    Maximum-Head-Change  Column Row Layer    Maximum-Flux-Residual          L2-NORM 
          0                 1           2             4    7     1       0.6315759343E-02       4    7    1         0.3318099009E+00      0.8170349539E+00
          0                 2           2             4    7     1      -0.6143520482E-03       4    7    1        -0.3318105019E-01      0.8106019786E-01
          0                 3           1             4    7     1       0.4183508913E-04       4    7    1         0.2322673944E-02      0.5689271504E-02

    ------------------------------------------------
       NWT REQUIRED            3 OUTER ITERATIONS 
       AND A TOTAL OF          5 INNER ITERATIONS.
    ------------------------------------------------

 NO OUTPUT CONTROL FOR STRESS PERIOD   14   TIME STEP   15
 
 SOLVING FOR HEAD 
                                                   Max.-Head-Change                         Max.-Flux-Residual
  Residual-Control   Outer-Iter.   Inner-Iter.     Column Row Layer    Maximum-Head-Change  Column Row Layer    Maximum-Flux-Residual          L2-NORM 
          0                 1           2             4    7     1       0.6251409493E-02       4    7    1         0.3284111945E+00      0.8101447269E+00
          0                 2           2             4    7     1      -0.6080925407E-03       4    7    1        -0.3284117809E-01      0.8037021936E-01
          0                 3           1             4    7     1       0.4140883986E-04       4    7    1         0.2298882895E-02      0.5640222368E-02

    ------------------------------------------------
       NWT REQUIRED            3 OUTER ITERATIONS 
       AND A TOTAL OF          5 INNER ITERATIONS.
    ------------------------------------------------

 NO OUTPUT CONTROL FOR STRESS PERIOD   14   TIME STEP   16
 
 SOLVING FOR HEAD 
                                                   Max.-Head-Change                         Max.-Flux-Residual
  Residual-Control   Outer-Iter.   Inner-Iter.     Column Row Layer    Maximum-Head-Change  Column Row Layer    Maximum-Flux-Residual          L2-NORM 
          0                 1           2             4    7     1       0.6187912159E-02       4    7    1         0.3250573899E+00      0.8033746231E+00
          0                 2           2             4    7     1      -0.6019159603E-03       4    7    1        -0.3250579618E-01      0.7969223294E-01
          0                 3           1             4    7     1       0.4098823784E-04       4    7    1         0.2275406164E-02      0.5593067191E-02

    ------------------------------------------------
       NWT REQUIRED            3 OUTER ITERATIONS 
       AND A TOTAL OF          5 INNER ITERATIONS.
    ------------------------------------------------

 NO OUTPUT CONTROL FOR STRESS PERIOD   14   TIME STEP   17
 
 SOLVING FOR HEAD 
                                                   Max.-Head-Change                         Max.-Flux-Residual
  Residual-Control   Outer-Iter.   Inner-Iter.     Column Row Layer    Maximum-Head-Change  Column Row Layer    Maximum-Flux-Residual          L2-NORM 
          0                 1           2             4    7     1       0.6125787589E-02       4    7    1         0.3217774180E+00      0.7967299433E+00
          0                 2           2             4    7     1      -0.5958729137E-03       4    7    1        -0.3217779763E-01      0.7902701189E-01
          0                 3           1             4    7     1       0.4057672929E-04       4    7    1         0.2252446279E-02      0.5546732714E-02

    ------------------------------------------------
       NWT REQUIRED            3 OUTER ITERATIONS 
       AND A TOTAL OF          5 INNER ITERATIONS.
    ------------------------------------------------

 NO OUTPUT CONTROL FOR STRESS PERIOD   14   TIME STEP   18
 
 SOLVING FOR HEAD 
                                                   Max.-Head-Change                         Max.-Flux-Residual
  Residual-Control   Outer-Iter.   Inner-Iter.     Column Row Layer    Maximum-Head-Change  Column Row Layer    Maximum-Flux-Residual          L2-NORM 
          0                 1           2             4    7     1       0.6064187834E-02       4    7    1         0.3185242799E+00      0.7901854291E+00
          0                 2           2             4    7     1      -0.5898809173E-03       4    7    1        -0.3185248247E-01      0.7837177328E-01
          0                 3           1             4    7     1       0.4016869676E-04       4    7    1         0.2229674214E-02      0.5501072192E-02

    ------------------------------------------------
       NWT REQUIRED            3 OUTER ITERATIONS 
       AND A TOTAL OF          5 INNER ITERATIONS.
    ------------------------------------------------

 NO OUTPUT CONTROL FOR STRESS PERIOD   14   TIME STEP   19
 
 SOLVING FOR HEAD 
                                                   Max.-Head-Change                         Max.-Flux-Residual
  Residual-Control   Outer-Iter.   Inner-Iter.     Column Row Layer    Maximum-Head-Change  Column Row Layer    Maximum-Flux-Residual          L2-NORM 
          0                 1           2             4    7     1       0.6003653280E-02       4    7    1         0.3153279713E+00      0.7837578002E+00
          0                 2           2             4    7     1      -0.5839925363E-03       4    7    1        -0.3153285029E-01      0.7772846742E-01
          0                 3           1             4    7     1       0.3976771993E-04       4    7    1         0.2207299962E-02      0.5456290337E-02

    ------------------------------------------------
       NWT REQUIRED            3 OUTER ITERATIONS 
       AND A TOTAL OF          5 INNER ITERATIONS.
    ------------------------------------------------

 NO OUTPUT CONTROL FOR STRESS PERIOD   14   TIME STEP   20
 
 SOLVING FOR HEAD 
                                                   Max.-Head-Change                         Max.-Flux-Residual
  Residual-Control   Outer-Iter.   Inner-Iter.     Column Row Layer    Maximum-Head-Change  Column Row Layer    Maximum-Flux-Residual          L2-NORM 
          0                 1           2             4    7     1       0.5944150272E-02       4    7    1         0.3121869340E+00      0.7774267311E+00
          0                 2           2             4    7     1      -0.5782044980E-03       4    7    1        -0.3121874532E-01      0.7709493043E-01
          0                 3           1             4    7     1       0.3937357587E-04       4    7    1         0.2185312617E-02      0.5412096089E-02

    ------------------------------------------------
       NWT REQUIRED            3 OUTER ITERATIONS 
       AND A TOTAL OF          5 INNER ITERATIONS.
    ------------------------------------------------

 NO OUTPUT CONTROL FOR STRESS PERIOD   14   TIME STEP   21
 
 SOLVING FOR HEAD 
                                                   Max.-Head-Change                         Max.-Flux-Residual
  Residual-Control   Outer-Iter.   Inner-Iter.     Column Row Layer    Maximum-Head-Change  Column Row Layer    Maximum-Flux-Residual          L2-NORM 
          0                 1           2             4    7     1       0.5885387741E-02       4    7    1         0.3090846223E+00      0.7711941232E+00
          0                 2           2             4    7     1      -0.5724884879E-03       4    7    1        -0.3090851291E-01      0.7647161193E-01
          0                 3           1             4    7     1       0.3898433732E-04       4    7    1         0.2163596356E-02      0.5368697887E-02

    ------------------------------------------------
       NWT REQUIRED            3 OUTER ITERATIONS 
       AND A TOTAL OF          5 INNER ITERATIONS.
    ------------------------------------------------

 NO OUTPUT CONTROL FOR STRESS PERIOD   14   TIME STEP   22
 
 SOLVING FOR HEAD 
                                                   Max.-Head-Change                         Max.-Flux-Residual
  Residual-Control   Outer-Iter.   Inner-Iter.     Column Row Layer    Maximum-Head-Change  Column Row Layer    Maximum-Flux-Residual          L2-NORM 
          0                 1           2             4    7     1       0.5827625332E-02       4    7    1         0.3060355321E+00      0.7650654467E+00
          0                 2           2             4    7     1      -0.5668697628E-03       4    7    1        -0.3060360270E-01      0.7585829596E-01
          0                 3           1             4    7     1       0.3860172303E-04       4    7    1         0.2142252642E-02      0.5325892698E-02

    ------------------------------------------------
       NWT REQUIRED            3 OUTER ITERATIONS 
       AND A TOTAL OF          5 INNER ITERATIONS.
    ------------------------------------------------

 NO OUTPUT CONTROL FOR STRESS PERIOD   14   TIME STEP   23
 
 SOLVING FOR HEAD 
                                                   Max.-Head-Change                         Max.-Flux-Residual
  Residual-Control   Outer-Iter.   Inner-Iter.     Column Row Layer    Maximum-Head-Change  Column Row Layer    Maximum-Flux-Residual          L2-NORM 
          0                 1           2             4    7     1       0.5770833040E-02       4    7    1         0.3030383365E+00      0.7590194576E+00
          0                 2           2             4    7     1      -0.5613454043E-03       4    7    1        -0.3030388197E-01      0.7525155569E-01
          0                 3           1             4    7     1       0.3822553465E-04       4    7    1         0.2121272182E-02      0.5283549496E-02

    ------------------------------------------------
       NWT REQUIRED            3 OUTER ITERATIONS 
       AND A TOTAL OF          5 INNER ITERATIONS.
    ------------------------------------------------

 NO OUTPUT CONTROL FOR STRESS PERIOD   14   TIME STEP   24
 
 SOLVING FOR HEAD 
                                                   Max.-Head-Change                         Max.-Flux-Residual
  Residual-Control   Outer-Iter.   Inner-Iter.     Column Row Layer    Maximum-Head-Change  Column Row Layer    Maximum-Flux-Residual          L2-NORM 
          0                 1           2             4    7     1       0.5714721993E-02       4    7    1         0.3000766785E+00      0.7530628736E+00
          0                 2           2             4    7     1      -0.5558873128E-03       4    7    1        -0.3000771503E-01      0.7465372472E-01
          0                 3           1             4    7     1       0.3785385916E-04       4    7    1         0.2100540517E-02      0.5241882072E-02

    ------------------------------------------------
       NWT REQUIRED            3 OUTER ITERATIONS 
       AND A TOTAL OF          5 INNER ITERATIONS.
    ------------------------------------------------

 NO OUTPUT CONTROL FOR STRESS PERIOD   14   TIME STEP   25
 
 SOLVING FOR HEAD 
                                                   Max.-Head-Change                         Max.-Flux-Residual
  Residual-Control   Outer-Iter.   Inner-Iter.     Column Row Layer    Maximum-Head-Change  Column Row Layer    Maximum-Flux-Residual          L2-NORM 
          0                 1           2             4    7     1       0.5659277950E-02       4    7    1         0.2971503689E+00      0.7471866095E+00
          0                 2           2             4    7     1      -0.5504941040E-03       4    7    1        -0.2971508301E-01      0.7406561333E-01
          0                 3           1             4    7     1       0.3748660164E-04       4    7    1         0.2080056263E-02      0.5200890774E-02

    ------------------------------------------------
       NWT REQUIRED            3 OUTER ITERATIONS 
       AND A TOTAL OF          5 INNER ITERATIONS.
    ------------------------------------------------

 NO OUTPUT CONTROL FOR STRESS PERIOD   14   TIME STEP   26
 
 SOLVING FOR HEAD 
                                                   Max.-Head-Change                         Max.-Flux-Residual
  Residual-Control   Outer-Iter.   Inner-Iter.     Column Row Layer    Maximum-Head-Change  Column Row Layer    Maximum-Flux-Residual          L2-NORM 
          0                 1           2             4    7     1       0.5604759371E-02       4    7    1         0.2942734690E+00      0.7413911085E+00
          0                 2           2             4    7     1      -0.5451909166E-03       4    7    1        -0.2942739192E-01      0.7348205974E-01
          0                 3           1             4    7     1       0.3712547468E-04       4    7    1         0.2059917915E-02      0.5160214857E-02

    ------------------------------------------------
       NWT REQUIRED            3 OUTER ITERATIONS 
       AND A TOTAL OF          5 INNER ITERATIONS.
    ------------------------------------------------

 NO OUTPUT CONTROL FOR STRESS PERIOD   14   TIME STEP   27
 
 SOLVING FOR HEAD 
                                                   Max.-Head-Change                         Max.-Flux-Residual
  Residual-Control   Outer-Iter.   Inner-Iter.     Column Row Layer    Maximum-Head-Change  Column Row Layer    Maximum-Flux-Residual          L2-NORM 
          0                 1           2             4    7     1       0.5551151572E-02       4    7    1         0.2914445899E+00      0.7356807009E+00
          0                 2           2             4    7     1      -0.5399763242E-03       4    7    1        -0.2914450298E-01      0.7290848308E-01
          0                 3           1             4    7     1       0.3677038052E-04       4    7    1         0.2040115681E-02      0.5120201046E-02

    ------------------------------------------------
       NWT REQUIRED            3 OUTER ITERATIONS 
       AND A TOTAL OF          5 INNER ITERATIONS.
    ------------------------------------------------

 NO OUTPUT CONTROL FOR STRESS PERIOD   14   TIME STEP   28
 
 SOLVING FOR HEAD 
                                                   Max.-Head-Change                         Max.-Flux-Residual
  Residual-Control   Outer-Iter.   Inner-Iter.     Column Row Layer    Maximum-Head-Change  Column Row Layer    Maximum-Flux-Residual          L2-NORM 
          0                 1           2             4    7     1       0.5498151547E-02       4    7    1         0.2886481689E+00      0.7300333274E+00
          0                 2           2             4    7     1      -0.5348208519E-03       4    7    1        -0.2886485986E-01      0.7234178256E-01
          0                 3           1             4    7     1       0.3641931216E-04       4    7    1         0.2020540664E-02      0.5080675768E-02

    ------------------------------------------------
       NWT REQUIRED            3 OUTER ITERATIONS 
       AND A TOTAL OF          5 INNER ITERATIONS.
    ------------------------------------------------

 NO OUTPUT CONTROL FOR STRESS PERIOD   14   TIME STEP   29
 
 SOLVING FOR HEAD 
                                                   Max.-Head-Change                         Max.-Flux-Residual
  Residual-Control   Outer-Iter.   Inner-Iter.     Column Row Layer    Maximum-Head-Change  Column Row Layer    Maximum-Flux-Residual          L2-NORM 
          0                 1           2             4    7     1       0.5446028600E-02       4    7    1         0.2858980847E+00      0.7244738555E+00
          0                 2           2             4    7     1      -0.5297506963E-03       4    7    1        -0.2858985049E-01      0.7178382583E-01
          0                 3           1             4    7     1       0.3607405320E-04       4    7    1         0.2001289987E-02      0.5041749685E-02

    ------------------------------------------------
       NWT REQUIRED            3 OUTER ITERATIONS 
       AND A TOTAL OF          5 INNER ITERATIONS.
    ------------------------------------------------

 NO OUTPUT CONTROL FOR STRESS PERIOD   14   TIME STEP   30



 STREAM LISTING     PERIOD     14   STEP       30

 LAYER ROW COL. STREAM  RCH.  FLOW INTO     FLOW TO   FLOW OUT OF   OVRLND.     DIRECT     STREAM       STREAM     STREAM     STREAM   STREAMBED  STREAMBED
                SEG.NO.  NO.  STRM. RCH.    AQUIFER    STRM. RCH.    RUNOFF     PRECIP       ET          HEAD       DEPTH      WIDTH   CONDCTNC.   GRADIENT

   1    1    1     1     1    1.9000E+01  2.1427E-01   1.8786E+01  0.000E+00  0.000E+00  0.000E+00  1.09413E+03  1.082E+00  1.166E+01  5.249E-02  1.361E+00
   1    2    2     1     2    1.8786E+01  3.3054E-01   1.8455E+01  0.000E+00  0.000E+00  0.000E+00  1.08914E+03  1.077E+00  1.158E+01  8.107E-02  1.359E+00
   1    3    3     1     3    1.8455E+01  2.8064E-01   1.8175E+01  0.000E+00  0.000E+00  0.000E+00  1.08349E+03  1.072E+00  1.149E+01  6.892E-02  1.357E+00
   1    3    4     1     4    1.8175E+01  2.5740E-01   1.7917E+01  0.000E+00  0.000E+00  0.000E+00  1.07848E+03  1.068E+00  1.140E+01  6.328E-02  1.356E+00
   1    4    5     2     1    1.5917E+01  3.0542E-01   1.5612E+01  0.000E+00  0.000E+00  0.000E+00  1.07285E+03  9.157E-01  1.200E+01  7.800E-02  1.305E+00
   1    5    6     2     2    1.5612E+01  2.3438E-01   1.5377E+01  0.000E+00  0.000E+00  0.000E+00  1.06742E+03  9.063E-01  1.200E+01  6.000E-02  1.302E+00
   1    6    6     2     3    1.5377E+01  2.3388E-01   1.5143E+01  0.000E+00  0.000E+00  0.000E+00  1.06269E+03  8.980E-01  1.200E+01  6.000E-02  1.299E+00
   1    7    6     2     4    1.5143E+01  2.3338E-01   1.4910E+01  0.000E+00  0.000E+00  0.000E+00  1.05797E+03  8.897E-01  1.200E+01  6.000E-02  1.297E+00
   1    8    6     2     5    1.4910E+01  2.3289E-01   1.4677E+01  0.000E+00  0.000E+00  0.000E+00  1.05324E+03  8.814E-01  1.200E+01  6.000E-02  1.294E+00
   1    3    5     3     1    2.0000E+00  2.8252E-01   1.7175E+00  0.000E+00  0.000E+00  0.000E+00  1.07555E+03  1.909E+00  9.636E+00  7.227E-02  1.955E+00
   1    3    6     3     2    1.7175E+00  2.4905E-01   1.4684E+00  0.000E+00  0.000E+00  0.000E+00  1.07264E+03  1.727E+00  8.909E+00  6.682E-02  1.864E+00
   1    3    7     3     3    1.4684E+00  1.9718E-01   1.2712E+00  0.000E+00  0.000E+00  0.000E+00  1.06987E+03  1.555E+00  8.218E+00  5.547E-02  1.777E+00
   1    4    8     3     4    1.2712E+00  2.2567E-01   1.0456E+00  0.000E+00  0.000E+00  0.000E+00  1.06682E+03  1.364E+00  7.455E+00  6.709E-02  1.682E+00
   1    5    8     3     5    1.0456E+00  1.5790E-01   8.8768E-01  0.000E+00  0.000E+00  0.000E+00  1.06362E+03  1.164E+00  6.655E+00  4.991E-02  1.582E+00
   1    6    8     3     6    8.8768E-01  5.5980E-02   8.3170E-01  0.000E+00  0.000E+00  0.000E+00  1.06158E+03  1.036E+00  6.145E+00  1.844E-02  1.518E+00
   1    5   10     4     1    1.0000E+01  9.0919E-02   9.9091E+00  0.000E+00  0.000E+00  0.000E+00  1.07836E+03  6.368E-01  1.000E+01  2.500E-02  1.212E+00
   1    5    9     4     2    9.9091E+00  1.8158E-01   9.7275E+00  0.000E+00  0.000E+00  0.000E+00  1.07154E+03  6.315E-01  1.000E+01  5.000E-02  1.211E+00
   1    6    8     4     3    9.7275E+00  1.2689E-01   9.6006E+00  0.000E+00  0.000E+00  0.000E+00  1.06381E+03  6.256E-01  1.000E+01  3.500E-02  1.209E+00
   1    6    8     5     1    1.0432E+01  2.2686E-01   1.0205E+01  0.000E+00  0.000E+00  0.000E+00  1.05868E+03  6.790E-01  1.542E+01  6.166E-02  1.226E+00
   1    7    7     5     2    1.0205E+01  2.7894E-01   9.9265E+00  0.000E+00  0.000E+00  0.000E+00  1.05417E+03  6.732E-01  1.519E+01  7.594E-02  1.224E+00
   1    8    7     5     3    9.9265E+00  1.9221E-01   9.7343E+00  0.000E+00  0.000E+00  0.000E+00  1.04992E+03  6.676E-01  1.497E+01  5.241E-02  1.223E+00
   1    8    6     5     4    9.7343E+00  1.3577E-01   9.5985E+00  0.000E+00  0.000E+00  0.000E+00  1.04691E+03  6.637E-01  1.482E+01  3.706E-02  1.221E+00
   1    9    6     6     1    2.4276E+01  2.5176E-01   2.4024E+01  0.000E+00  0.000E+00  0.000E+00  1.04392E+03  1.196E+00  1.200E+01  6.000E-02  1.399E+00
   1   10    7     6     2    2.4024E+01  2.5131E-01   2.3773E+01  0.000E+00  0.000E+00  0.000E+00  1.03937E+03  1.188E+00  1.200E+01  6.000E-02  1.396E+00
   1   11    7     6     3    2.3773E+01  2.5086E-01   2.3522E+01  0.000E+00  0.000E+00  0.000E+00  1.03482E+03  1.181E+00  1.200E+01  6.000E-02  1.394E+00
   1   12    7     6     4    2.3522E+01  2.5041E-01   2.3271E+01  0.000E+00  0.000E+00  0.000E+00  1.03026E+03  1.173E+00  1.200E+01  6.000E-02  1.391E+00
   1   13    7     6     5    2.3271E+01 -7.7754E-03   2.3279E+01  0.000E+00  0.000E+00  0.000E+00  1.02708E+03  1.170E+00  1.200E+01  2.400E-01 -1.080E-02
   1   14    9     7     1    1.5000E+02  1.3335E+00   1.4867E+02  0.000E+00  0.000E+00  0.000E+00  1.03987E+03  2.288E+00  5.529E+01  5.593E-01  7.947E-01
   1   13    8     7     2    1.4867E+02  1.8216E+00   1.4684E+02  0.000E+00  0.000E+00  0.000E+00  1.03478E+03  2.279E+00  5.526E+01  6.148E-01  9.877E-01
   1   13    7     7     3    1.4684E+02  1.4401E+00   1.4540E+02  0.000E+00  0.000E+00  0.000E+00  1.02969E+03  2.271E+00  5.522E+01  5.585E-01  8.596E-01
   1   13    6     8     1    1.6868E+02  8.8649E-01   1.6780E+02  0.000E+00  0.000E+00  0.000E+00  1.02482E+03  2.941E+00  4.264E+01  4.345E-01  6.801E-01
   1   13    5     8     2    1.6780E+02  1.4344E-01   1.6765E+02  0.000E+00  0.000E+00  0.000E+00  1.01856E+03  2.937E+00  4.259E+01  4.340E-01  1.102E-01
   1   13    4     8     3    1.6765E+02 -2.5557E+00   1.7021E+02  0.000E+00  0.000E+00  0.000E+00  1.01232E+03  2.945E+00  4.271E+01  4.352E+00 -1.958E-01
   1   13    3     8     4    1.7021E+02 -3.7109E+00   1.7392E+02  0.000E+00  0.000E+00  0.000E+00  1.00609E+03  2.966E+00  4.300E+01  4.382E+00 -2.823E-01
   1   13    2     8     5    1.7392E+02 -2.5973E+00   1.7652E+02  0.000E+00  0.000E+00  0.000E+00  9.99861E+02  2.986E+00  4.330E+01  4.412E+00 -1.962E-01
   1   13    1     8     6    1.7652E+02 -1.9925E+00   1.7851E+02  0.000E+00  0.000E+00  0.000E+00  9.94875E+02  3.000E+00  4.351E+01  2.660E+00 -2.497E-01





UNSATURATED ZONE PACKAGE VOLUMETRIC BUDGET FOR  TIME STEP    30 STRESS PERIOD   14
  ------------------------------------------------------------------------------



     CUMULATIVE VOLUMES      L**3       RATES FOR THIS TIME STEP      L**3/T
     ------------------                 ------------------------

           IN:                                      IN:
           ---                                      ---
        INFILTRATION =   198799899.6343          INFILTRATION =           0.8475

          OUT:                                     OUT:
          ----                                     ----
              UZF ET =    93823628.3918                UZF ET =           0.0381
        UZF RECHARGE =     8689875.1369          UZF RECHARGE =           0.0459

            IN - OUT =    96286396.1056              IN - OUT =           0.7634

          STORAGE:                                 STORAGE:
          --------                                 --------
      STORAGE CHANGE =    96348606.3895        STORAGE CHANGE =           0.7634

 PERCENT DISCREPANCY IS DIFFERENCE BETWEEN IN-OUT MINUS CHANGE IN STORAGE
 DIVIDED BY THE AVERAGE OF IN AND OUT TIMES 100

 PERCENT DISCREPANCY =          -0.01     PERCENT DISCREPANCY =          -0.00






1
  VOLUMETRIC BUDGET FOR ENTIRE MODEL AT END OF TIME STEP   30, STRESS PERIOD  14
  ------------------------------------------------------------------------------

     CUMULATIVE VOLUMES      L**3       RATES FOR THIS TIME STEP      L**3/T
     ------------------                 ------------------------

           IN:                                      IN:
           ---                                      ---
               AWU WELLS =   169772608.0000                 AWU WELLS =           0.0000
      DIVERSION SEGMENTS =           0.0000        DIVERSION SEGMENTS =           0.0000
           GW IRRIGATION =           0.0000             GW IRRIGATION =           0.0000
           SW IRRIGATION =           0.0000             SW IRRIGATION =           0.0000
        SYSTEM LOSSES GW =           0.0000          SYSTEM LOSSES GW =           0.0000
        SYSTEM LOSSES SW =           0.0000          SYSTEM LOSSES SW =           0.0000

                TOTAL IN =   169772608.0000                  TOTAL IN =           0.0000

          OUT:                                     OUT:
          ----                                     ----
               AWU WELLS =           0.0000                 AWU WELLS =           0.0000
      DIVERSION SEGMENTS =           0.0000        DIVERSION SEGMENTS =           0.0000
           GW IRRIGATION =   169772608.0000             GW IRRIGATION =           0.0000
           SW IRRIGATION =           0.0000             SW IRRIGATION =           0.0000
        SYSTEM LOSSES GW =           0.0000          SYSTEM LOSSES GW =           0.0000
        SYSTEM LOSSES SW =           0.0000          SYSTEM LOSSES SW =           0.0000

               TOTAL OUT =   169772608.0000                 TOTAL OUT =           0.0000

                IN - OUT =           0.0000                  IN - OUT =           0.0000

     PERCENT DISCREPANCY =           0.00         PERCENT DISCREPANCY =           0.00



1
  VOLUMETRIC BUDGET FOR ENTIRE MODEL AT END OF TIME STEP   30, STRESS PERIOD  14
  ------------------------------------------------------------------------------

     CUMULATIVE VOLUMES      L**3       RATES FOR THIS TIME STEP      L**3/T
     ------------------                 ------------------------

           IN:                                      IN:
           ---                                      ---
             STORAGE     =   292629696.0000               STORAGE     =           2.1445
       CONSTANT HEAD     =           0.0000         CONSTANT HEAD     =           0.0000
     HEAD DEP BOUNDS     =     9784586.0000       HEAD DEP BOUNDS     =           0.2856
      STREAM LEAKAGE     =   431277472.0000        STREAM LEAKAGE     =          11.3537
        UZF RECHARGE     =     8689881.0000          UZF RECHARGE     =       4.5922E-02
               GW ET     =           0.0000                 GW ET     =           0.0000
     SURFACE LEAKAGE     =           0.0000       SURFACE LEAKAGE     =           0.0000
           AWU WELLS     =           0.0000             AWU WELLS     =           0.0000

                TOTAL IN =   742381632.0000                  TOTAL IN =          13.8297

          OUT:                                     OUT:
          ----                                     ----
             STORAGE     =   180657936.0000               STORAGE     =           2.6663
       CONSTANT HEAD     =           0.0000         CONSTANT HEAD     =           0.0000
     HEAD DEP BOUNDS     =     9941566.0000       HEAD DEP BOUNDS     =           0.2897
      STREAM LEAKAGE     =   326813856.0000        STREAM LEAKAGE     =          10.8642
        UZF RECHARGE     =           0.0000          UZF RECHARGE     =           0.0000
               GW ET     =    55201124.0000                 GW ET     =       9.6159E-03
     SURFACE LEAKAGE     =           0.0000       SURFACE LEAKAGE     =           0.0000
           AWU WELLS     =   169772608.0000             AWU WELLS     =           0.0000

               TOTAL OUT =   742387136.0000                 TOTAL OUT =          13.8298

                IN - OUT =       -5504.0000                  IN - OUT =      -1.0777E-04

     PERCENT DISCREPANCY =          -0.00         PERCENT DISCREPANCY =          -0.00






         TIME SUMMARY AT END OF TIME STEP   30 IN STRESS PERIOD   14
                    SECONDS     MINUTES      HOURS       DAYS        YEARS
                    -----------------------------------------------------------
   TIME STEP LENGTH  87600.      1460.0      24.333      1.0139     2.77588E-03
 STRESS PERIOD TIME 2.62800E+06  43800.      730.00      30.417     8.32763E-02
         TOTAL TIME 3.42504E+07 5.70840E+05  9514.0      396.42      1.0853    
1
1
                            STRESS PERIOD NO.   15, LENGTH =   2628000.    
                            -----------------------------------------------

                              NUMBER OF TIME STEPS =    30

                               MULTIPLIER FOR DELT =     1.000

                            INITIAL TIME STEP SIZE =   87600.00    

 REUSING NON-PARAMETER GHB CELLS FROM LAST STRESS PERIOD

      2 GHB CELLS

 REUSING STREAM SEGMENT DATA FROM LAST STRESS PERIOD



            AREAL INFILTRATION RATE
 READING ON UNIT   19 WITH FORMAT: (10F4.0)            

            1           2           3           4           5           6           7           8           9          10
 ........................................................................................................................
   1   1.0000E-10  2.0000E-10   0.000       0.000       0.000       0.000       0.000       0.000       0.000       0.000    
   2   2.0000E-10  1.0000E-10  2.0000E-10   0.000       0.000      8.0000E-10  8.0000E-10  5.0000E-10   0.000       0.000    
   3    0.000      5.0000E-10  1.0000E-10  1.0000E-10  8.0000E-10  8.0000E-10  5.0000E-10  5.0000E-10   0.000       0.000    
   4   8.0000E-10  5.0000E-10  1.0000E-10  1.0000E-10  1.0000E-10  1.0000E-10  1.0000E-10  1.0000E-10  2.0000E-10   0.000    
   5   8.0000E-10  5.0000E-10  1.0000E-10  1.0000E-10  1.0000E-10  1.0000E-10  1.0000E-10  1.0000E-10  1.0000E-10  1.0000E-10
   6   8.0000E-10  5.0000E-10  5.0000E-10  2.0000E-10  2.0000E-10  1.0000E-10  1.0000E-10  1.0000E-10  1.0000E-10  5.0000E-10
   7   8.0000E-10  5.0000E-10  5.0000E-10  2.0000E-10  2.0000E-10  1.0000E-10  1.0000E-10  2.0000E-10  2.0000E-10   0.000    
   8    0.000      5.0000E-10  5.0000E-10  2.0000E-10  2.0000E-10  1.0000E-10  1.0000E-10  2.0000E-10  5.0000E-10   0.000    
   9    0.000      5.0000E-10  5.0000E-10  2.0000E-10  2.0000E-10  1.0000E-10  1.0000E-10  2.0000E-10  5.0000E-10   0.000    
  10    0.000      5.0000E-10  5.0000E-10  2.0000E-10  2.0000E-10  1.0000E-10  1.0000E-10  2.0000E-10  5.0000E-10  8.0000E-10
  11    0.000      1.0000E-10  1.0000E-10  1.0000E-10  1.0000E-10  1.0000E-10  1.0000E-10  2.0000E-10  5.0000E-10   0.000    
  12   1.0000E-10  1.0000E-10  1.0000E-10  1.0000E-10  1.0000E-10  1.0000E-10  1.0000E-10  1.0000E-10  2.0000E-10   0.000    
  13   1.0000E-10  1.0000E-10  2.0000E-10  2.0000E-10  2.0000E-10  2.0000E-10  2.0000E-10  1.0000E-10  1.0000E-10   0.000    
  14    0.000      2.0000E-10  5.0000E-10  5.0000E-10  5.0000E-10  5.0000E-10  5.0000E-10  2.0000E-10  1.0000E-10   0.000    
  15    0.000       0.000      8.0000E-10  8.0000E-10  8.0000E-10  8.0000E-10   0.000       0.000       0.000       0.000    

                  ET RATE =  1.000000E-10

 USING ET EXTINCTION DEPTH FROM PREVIOUS STRESS PERIOD. CURRENT PERIOD IS:      15

 USING EXTINCTION WATER CONTENT FROM PREVIOUS STRESS PERIOD. CURRENT PERIOD IS:      15

 PROCESSING AWU STRESS PERIOD DATA

 READING AWU STRESS PERIOD DATA

 READING IRRIGATION WELL

 END PROCESSING AWU STRESS PERIOD DATA OPTIONS
 
 SOLVING FOR HEAD 
                                                   Max.-Head-Change                         Max.-Flux-Residual
  Residual-Control   Outer-Iter.   Inner-Iter.     Column Row Layer    Maximum-Head-Change  Column Row Layer    Maximum-Flux-Residual          L2-NORM 
          0                 1           2             4    7     1       0.5394756332E-02       4    7    1         0.2831935107E+00      0.7189824691E+00
          0                 2           2             4    7     1      -0.5247632891E-03       4    7    1        -0.2831939215E-01      0.7123279983E-01
          0                 3           1             4    7     1       0.3573442942E-04       4    7    1         0.1982357926E-02      0.5003341360E-02

    ------------------------------------------------
       NWT REQUIRED            3 OUTER ITERATIONS 
       AND A TOTAL OF          5 INNER ITERATIONS.
    ------------------------------------------------

 NO OUTPUT CONTROL FOR STRESS PERIOD   15   TIME STEP    1
 
 SOLVING FOR HEAD 
                                                   Max.-Head-Change                         Max.-Flux-Residual
  Residual-Control   Outer-Iter.   Inner-Iter.     Column Row Layer    Maximum-Head-Change  Column Row Layer    Maximum-Flux-Residual          L2-NORM 
          0                 1           2             4    7     1       0.5344047888E-02       4    7    1         0.2805182757E+00      0.7122330177E+00
          0                 2           2             4    7     1      -0.5198307258E-03       4    7    1        -0.2805186769E-01      0.7054256670E-01
          0                 3           1             4    7     1       0.3539854011E-04       4    7    1         0.1963631190E-02      0.4955381919E-02

    ------------------------------------------------
       NWT REQUIRED            3 OUTER ITERATIONS 
       AND A TOTAL OF          5 INNER ITERATIONS.
    ------------------------------------------------

 NO OUTPUT CONTROL FOR STRESS PERIOD   15   TIME STEP    2
 
 SOLVING FOR HEAD 
                                                   Max.-Head-Change                         Max.-Flux-Residual
  Residual-Control   Outer-Iter.   Inner-Iter.     Column Row Layer    Maximum-Head-Change  Column Row Layer    Maximum-Flux-Residual          L2-NORM 
          0                 1           2             4    7     1       0.5294180873E-02       4    7    1         0.2778870977E+00      0.7070911919E+00
          0                 2           2             4    7     1      -0.5149800120E-03       4    7    1        -0.2778874902E-01      0.7016180761E-01
          0                 3           1             4    7     1       0.3506822445E-04       4    7    1         0.1945212883E-02      0.4914001757E-02

    ------------------------------------------------
       NWT REQUIRED            3 OUTER ITERATIONS 
       AND A TOTAL OF          5 INNER ITERATIONS.
    ------------------------------------------------

 NO OUTPUT CONTROL FOR STRESS PERIOD   15   TIME STEP    3
 
 SOLVING FOR HEAD 
                                                   Max.-Head-Change                         Max.-Flux-Residual
  Residual-Control   Outer-Iter.   Inner-Iter.     Column Row Layer    Maximum-Head-Change  Column Row Layer    Maximum-Flux-Residual          L2-NORM 
          0                 1           2             4    7     1       0.5244868875E-02       4    7    1         0.2752847787E+00      0.7016310958E+00
          0                 2           2             4    7     1      -0.5101832864E-03       4    7    1        -0.2752851622E-01      0.6942318358E-01
          0                 3           1             4    7     1       0.3474158599E-04       4    7    1         0.1926996607E-02      0.4876578782E-02

    ------------------------------------------------
       NWT REQUIRED            3 OUTER ITERATIONS 
       AND A TOTAL OF          5 INNER ITERATIONS.
    ------------------------------------------------

 NO OUTPUT CONTROL FOR STRESS PERIOD   15   TIME STEP    4
 
 SOLVING FOR HEAD 
                                                   Max.-Head-Change                         Max.-Flux-Residual
  Residual-Control   Outer-Iter.   Inner-Iter.     Column Row Layer    Maximum-Head-Change  Column Row Layer    Maximum-Flux-Residual          L2-NORM 
          0                 1           2             4    7     1       0.5196366232E-02       4    7    1         0.2727260602E+00      0.6962383880E+00
          0                 2           2             4    7     1      -0.5054652887E-03       4    7    1        -0.2727264348E-01      0.6888316152E-01
          0                 3           1             4    7     1       0.3442030794E-04       4    7    1         0.1909085503E-02      0.4838946655E-02

    ------------------------------------------------
       NWT REQUIRED            3 OUTER ITERATIONS 
       AND A TOTAL OF          5 INNER ITERATIONS.
    ------------------------------------------------

 NO OUTPUT CONTROL FOR STRESS PERIOD   15   TIME STEP    5
 
 SOLVING FOR HEAD 
                                                   Max.-Head-Change                         Max.-Flux-Residual
  Residual-Control   Outer-Iter.   Inner-Iter.     Column Row Layer    Maximum-Head-Change  Column Row Layer    Maximum-Flux-Residual          L2-NORM 
          0                 1           2             4    7     1       0.5148652743E-02       4    7    1         0.2702093375E+00      0.6909568928E+00
          0                 2           2             4    7     1      -0.5008240552E-03       4    7    1        -0.2702097039E-01      0.6835483299E-01
          0                 3           1             4    7     1       0.3410425729E-04       4    7    1         0.1891468412E-02      0.4801471365E-02

    ------------------------------------------------
       NWT REQUIRED            3 OUTER ITERATIONS 
       AND A TOTAL OF          5 INNER ITERATIONS.
    ------------------------------------------------

 NO OUTPUT CONTROL FOR STRESS PERIOD   15   TIME STEP    6
 
 SOLVING FOR HEAD 
                                                   Max.-Head-Change                         Max.-Flux-Residual
  Residual-Control   Outer-Iter.   Inner-Iter.     Column Row Layer    Maximum-Head-Change  Column Row Layer    Maximum-Flux-Residual          L2-NORM 
          0                 1           2             4    7     1       0.5101713516E-02       4    7    1         0.2677335627E+00      0.6857926373E+00
          0                 2           2             4    7     1      -0.4962581365E-03       4    7    1        -0.2677339211E-01      0.6783870857E-01
          0                 3           1             4    7     1       0.3379333512E-04       4    7    1         0.1874137917E-02      0.4764983053E-02

    ------------------------------------------------
       NWT REQUIRED            3 OUTER ITERATIONS 
       AND A TOTAL OF          5 INNER ITERATIONS.
    ------------------------------------------------

 NO OUTPUT CONTROL FOR STRESS PERIOD   15   TIME STEP    7
 
 SOLVING FOR HEAD 
                                                   Max.-Head-Change                         Max.-Flux-Residual
  Residual-Control   Outer-Iter.   Inner-Iter.     Column Row Layer    Maximum-Head-Change  Column Row Layer    Maximum-Flux-Residual          L2-NORM 
          0                 1           2             4    7     1       0.5055256692E-02       4    7    1         0.2652831608E+00      0.6807133962E+00
          0                 2           2             4    7     1      -0.4917391431E-03       4    7    1        -0.2652835115E-01      0.6733172183E-01
          0                 3           1             4    7     1       0.3348560874E-04       4    7    1         0.1856985054E-02      0.4730642360E-02

    ------------------------------------------------
       NWT REQUIRED            3 OUTER ITERATIONS 
       AND A TOTAL OF          5 INNER ITERATIONS.
    ------------------------------------------------

 NO OUTPUT CONTROL FOR STRESS PERIOD   15   TIME STEP    8
 
 SOLVING FOR HEAD 
                                                   Max.-Head-Change                         Max.-Flux-Residual
  Residual-Control   Outer-Iter.   Inner-Iter.     Column Row Layer    Maximum-Head-Change  Column Row Layer    Maximum-Flux-Residual          L2-NORM 
          0                 1           2             4    7     1       0.5009276671E-02       4    7    1         0.2628577897E+00      0.6757205944E+00
          0                 2           2             4    7     1      -0.4872665294E-03       4    7    1        -0.2628581327E-01      0.6683266345E-01
          0                 3           1             4    7     1       0.3318104030E-04       4    7    1         0.1840007400E-02      0.4695812832E-02

    ------------------------------------------------
       NWT REQUIRED            3 OUTER ITERATIONS 
       AND A TOTAL OF          5 INNER ITERATIONS.
    ------------------------------------------------

 NO OUTPUT CONTROL FOR STRESS PERIOD   15   TIME STEP    9
 
 SOLVING FOR HEAD 
                                                   Max.-Head-Change                         Max.-Flux-Residual
  Residual-Control   Outer-Iter.   Inner-Iter.     Column Row Layer    Maximum-Head-Change  Column Row Layer    Maximum-Flux-Residual          L2-NORM 
          0                 1           2             4    7     1       0.4964306879E-02       4    7    1         0.2604867640E+00      0.6708058091E+00
          0                 2           2             4    7     1      -0.4828921842E-03       4    7    1        -0.2604870996E-01      0.6633791062E-01
          0                 3           1             4    7     1       0.3288316356E-04       4    7    1         0.1823410178E-02      0.4661151350E-02

    ------------------------------------------------
       NWT REQUIRED            3 OUTER ITERATIONS 
       AND A TOTAL OF          5 INNER ITERATIONS.
    ------------------------------------------------

 NO OUTPUT CONTROL FOR STRESS PERIOD   15   TIME STEP   10
 
 SOLVING FOR HEAD 
                                                   Max.-Head-Change                         Max.-Flux-Residual
  Residual-Control   Outer-Iter.   Inner-Iter.     Column Row Layer    Maximum-Head-Change  Column Row Layer    Maximum-Flux-Residual          L2-NORM 
          0                 1           2             4    7     1       0.4919779969E-02       4    7    1         0.2581385521E+00      0.6659743755E+00
          0                 2           2             4    7     1      -0.4785609193E-03       4    7    1        -0.2581388804E-01      0.6584941164E-01
          0                 3           1             4    7     1       0.3258822085E-04       4    7    1         0.1806972635E-02      0.4627004144E-02

    ------------------------------------------------
       NWT REQUIRED            3 OUTER ITERATIONS 
       AND A TOTAL OF          5 INNER ITERATIONS.
    ------------------------------------------------

 NO OUTPUT CONTROL FOR STRESS PERIOD   15   TIME STEP   11
 
 SOLVING FOR HEAD 
                                                   Max.-Head-Change                         Max.-Flux-Residual
  Residual-Control   Outer-Iter.   Inner-Iter.     Column Row Layer    Maximum-Head-Change  Column Row Layer    Maximum-Flux-Residual          L2-NORM 
          0                 1           2             4    7     1       0.4875686304E-02       4    7    1         0.2558133204E+00      0.6612018235E+00
          0                 2           2             4    7     1      -0.4742717972E-03       4    7    1        -0.2558136415E-01      0.6536674055E-01
          0                 3           1             4    7     1       0.3229614734E-04       4    7    1         0.1790695956E-02      0.4593253609E-02

    ------------------------------------------------
       NWT REQUIRED            3 OUTER ITERATIONS 
       AND A TOTAL OF          5 INNER ITERATIONS.
    ------------------------------------------------

 NO OUTPUT CONTROL FOR STRESS PERIOD   15   TIME STEP   12
 
 SOLVING FOR HEAD 
                                                   Max.-Head-Change                         Max.-Flux-Residual
  Residual-Control   Outer-Iter.   Inner-Iter.     Column Row Layer    Maximum-Head-Change  Column Row Layer    Maximum-Flux-Residual          L2-NORM 
          0                 1           2             4    7     1       0.4832292113E-02       4    7    1         0.2535253717E+00      0.6564994294E+00
          0                 2           2             4    7     1      -0.4700507158E-03       4    7    1        -0.2535256860E-01      0.6489135197E-01
          0                 3           1             4    7     1       0.3200870765E-04       4    7    1         0.1774680293E-02      0.4560029912E-02

    ------------------------------------------------
       NWT REQUIRED            3 OUTER ITERATIONS 
       AND A TOTAL OF          5 INNER ITERATIONS.
    ------------------------------------------------

 NO OUTPUT CONTROL FOR STRESS PERIOD   15   TIME STEP   13
 
 SOLVING FOR HEAD 
                                                   Max.-Head-Change                         Max.-Flux-Residual
  Residual-Control   Outer-Iter.   Inner-Iter.     Column Row Layer    Maximum-Head-Change  Column Row Layer    Maximum-Flux-Residual          L2-NORM 
          0                 1           2             4    7     1       0.4789580794E-02       4    7    1         0.2512737176E+00      0.6518739408E+00
          0                 2           2             4    7     1      -0.4658960591E-03       4    7    1        -0.2512740252E-01      0.6442391847E-01
          0                 3           1             4    7     1       0.3172579079E-04       4    7    1         0.1758918645E-02      0.4527380830E-02

    ------------------------------------------------
       NWT REQUIRED            3 OUTER ITERATIONS 
       AND A TOTAL OF          5 INNER ITERATIONS.
    ------------------------------------------------

 NO OUTPUT CONTROL FOR STRESS PERIOD   15   TIME STEP   14
 
 SOLVING FOR HEAD 
                                                   Max.-Head-Change                         Max.-Flux-Residual
  Residual-Control   Outer-Iter.   Inner-Iter.     Column Row Layer    Maximum-Head-Change  Column Row Layer    Maximum-Flux-Residual          L2-NORM 
          0                 1           2             4    7     1       0.4747543391E-02       4    7    1         0.2490574965E+00      0.6473146692E+00
          0                 2           2             4    7     1      -0.4618069564E-03       4    7    1        -0.2490577976E-01      0.6396370107E-01
          0                 3           1             4    7     1       0.3144733782E-04       4    7    1         0.1743405042E-02      0.4495250245E-02

    ------------------------------------------------
       NWT REQUIRED            3 OUTER ITERATIONS 
       AND A TOTAL OF          5 INNER ITERATIONS.
    ------------------------------------------------

 NO OUTPUT CONTROL FOR STRESS PERIOD   15   TIME STEP   15
 
 SOLVING FOR HEAD 
                                                   Max.-Head-Change                         Max.-Flux-Residual
  Residual-Control   Outer-Iter.   Inner-Iter.     Column Row Layer    Maximum-Head-Change  Column Row Layer    Maximum-Flux-Residual          L2-NORM 
          0                 1           2             4    7     1       0.4706153409E-02       4    7    1         0.2468762439E+00      0.6428141039E+00
          0                 2           2             4    7     1      -0.4577808307E-03       4    7    1        -0.2468765388E-01      0.6351009094E-01
          0                 3           1             4    7     1       0.3117317408E-04       4    7    1         0.1728136235E-02      0.4463646335E-02

    ------------------------------------------------
       NWT REQUIRED            3 OUTER ITERATIONS 
       AND A TOTAL OF          5 INNER ITERATIONS.
    ------------------------------------------------

 NO OUTPUT CONTROL FOR STRESS PERIOD   15   TIME STEP   16
 
 SOLVING FOR HEAD 
                                                   Max.-Head-Change                         Max.-Flux-Residual
  Residual-Control   Outer-Iter.   Inner-Iter.     Column Row Layer    Maximum-Head-Change  Column Row Layer    Maximum-Flux-Residual          L2-NORM 
          0                 1           2             4    7     1       0.4665125917E-02       4    7    1         0.2447137811E+00      0.6383685038E+00
          0                 2           2             4    7     1      -0.4537899655E-03       4    7    1        -0.2447140700E-01      0.6306301816E-01
          0                 3           1             4    7     1       0.3090141068E-04       4    7    1         0.1712998944E-02      0.4432452312E-02

    ------------------------------------------------
       NWT REQUIRED            3 OUTER ITERATIONS 
       AND A TOTAL OF          5 INNER ITERATIONS.
    ------------------------------------------------

 NO OUTPUT CONTROL FOR STRESS PERIOD   15   TIME STEP   17
 
 SOLVING FOR HEAD 
                                                   Max.-Head-Change                         Max.-Flux-Residual
  Residual-Control   Outer-Iter.   Inner-Iter.     Column Row Layer    Maximum-Head-Change  Column Row Layer    Maximum-Flux-Residual          L2-NORM 
          0                 1           2             4    7     1       0.4624459937E-02       4    7    1         0.2425701271E+00      0.6339782179E+00
          0                 2           2             4    7     1      -0.4498342654E-03       4    7    1        -0.2425704096E-01      0.6262261835E-01
          0                 3           1             4    7     1       0.3063204242E-04       4    7    1         0.1697993333E-02      0.4401719930E-02

    ------------------------------------------------
       NWT REQUIRED            3 OUTER ITERATIONS 
       AND A TOTAL OF          5 INNER ITERATIONS.
    ------------------------------------------------

 NO OUTPUT CONTROL FOR STRESS PERIOD   15   TIME STEP   18
 
 SOLVING FOR HEAD 
                                                   Max.-Head-Change                         Max.-Flux-Residual
  Residual-Control   Outer-Iter.   Inner-Iter.     Column Row Layer    Maximum-Head-Change  Column Row Layer    Maximum-Flux-Residual          L2-NORM 
          0                 1           2             4    7     1       0.4584699395E-02       4    7    1         0.2404748390E+00      0.6296581890E+00
          0                 2           2             4    7     1      -0.4459666401E-03       4    7    1        -0.2404751156E-01      0.6218986722E-01
          0                 3           1             4    7     1       0.3036867193E-04       4    7    1         0.1683326285E-02      0.4371496194E-02

    ------------------------------------------------
       NWT REQUIRED            3 OUTER ITERATIONS 
       AND A TOTAL OF          5 INNER ITERATIONS.
    ------------------------------------------------

 NO OUTPUT CONTROL FOR STRESS PERIOD   15   TIME STEP   19
 
 SOLVING FOR HEAD 
                                                   Max.-Head-Change                         Max.-Flux-Residual
  Residual-Control   Outer-Iter.   Inner-Iter.     Column Row Layer    Maximum-Head-Change  Column Row Layer    Maximum-Flux-Residual          L2-NORM 
          0                 1           2             4    7     1       0.4545271223E-02       4    7    1         0.2383969247E+00      0.6253828690E+00
          0                 2           2             4    7     1      -0.4421313458E-03       4    7    1        -0.2383971957E-01      0.6175840581E-01
          0                 3           1             4    7     1       0.3010750250E-04       4    7    1         0.1668780837E-02      0.4341401383E-02

    ------------------------------------------------
       NWT REQUIRED            3 OUTER ITERATIONS 
       AND A TOTAL OF          5 INNER ITERATIONS.
    ------------------------------------------------

 NO OUTPUT CONTROL FOR STRESS PERIOD   15   TIME STEP   20
 
 SOLVING FOR HEAD 
                                                   Max.-Head-Change                         Max.-Flux-Residual
  Residual-Control   Outer-Iter.   Inner-Iter.     Column Row Layer    Maximum-Head-Change  Column Row Layer    Maximum-Flux-Residual          L2-NORM 
          0                 1           2             4    7     1       0.4506444528E-02       4    7    1         0.2363510604E+00      0.6211585772E+00
          0                 2           2             4    7     1      -0.4383545591E-03       4    7    1        -0.2363513260E-01      0.6133201300E-01
          0                 3           1             4    7     1       0.2985031723E-04       4    7    1         0.1654459734E-02      0.4311665699E-02

    ------------------------------------------------
       NWT REQUIRED            3 OUTER ITERATIONS 
       AND A TOTAL OF          5 INNER ITERATIONS.
    ------------------------------------------------

 NO OUTPUT CONTROL FOR STRESS PERIOD   15   TIME STEP   21
 
 SOLVING FOR HEAD 
                                                   Max.-Head-Change                         Max.-Flux-Residual
  Residual-Control   Outer-Iter.   Inner-Iter.     Column Row Layer    Maximum-Head-Change  Column Row Layer    Maximum-Flux-Residual          L2-NORM 
          0                 1           2             4    7     1       0.4467935013E-02       4    7    1         0.2343216014E+00      0.6169801182E+00
          0                 2           2             4    7     1      -0.4346086252E-03       4    7    1        -0.2343218614E-01      0.6091019329E-01
          0                 3           1             4    7     1       0.2959523315E-04       4    7    1         0.1640253499E-02      0.4282186486E-02

    ------------------------------------------------
       NWT REQUIRED            3 OUTER ITERATIONS 
       AND A TOTAL OF          5 INNER ITERATIONS.
    ------------------------------------------------

 NO OUTPUT CONTROL FOR STRESS PERIOD   15   TIME STEP   22
 
 SOLVING FOR HEAD 
                                                   Max.-Head-Change                         Max.-Flux-Residual
  Residual-Control   Outer-Iter.   Inner-Iter.     Column Row Layer    Maximum-Head-Change  Column Row Layer    Maximum-Flux-Residual          L2-NORM 
          0                 1           2             4    7     1       0.4430280320E-02       4    7    1         0.2323382091E+00      0.6128598966E+00
          0                 2           2             4    7     1      -0.4309458424E-03       4    7    1        -0.2323384637E-01      0.6049424891E-01
          0                 3           1             4    7     1       0.2934581147E-04       4    7    1         0.1626369711E-02      0.4253217905E-02

    ------------------------------------------------
       NWT REQUIRED            3 OUTER ITERATIONS 
       AND A TOTAL OF          5 INNER ITERATIONS.
    ------------------------------------------------

 NO OUTPUT CONTROL FOR STRESS PERIOD   15   TIME STEP   23
 
 SOLVING FOR HEAD 
                                                   Max.-Head-Change                         Max.-Flux-Residual
  Residual-Control   Outer-Iter.   Inner-Iter.     Column Row Layer    Maximum-Head-Change  Column Row Layer    Maximum-Flux-Residual          L2-NORM 
          0                 1           2             4    7     1       0.4392914807E-02       4    7    1         0.2303695630E+00      0.6087903619E+00
          0                 2           2             4    7     1      -0.4273111891E-03       4    7    1        -0.2303698124E-01      0.6008324585E-01
          0                 3           1             4    7     1       0.2909830495E-04       4    7    1         0.1612589134E-02      0.4224503867E-02

    ------------------------------------------------
       NWT REQUIRED            3 OUTER ITERATIONS 
       AND A TOTAL OF          5 INNER ITERATIONS.
    ------------------------------------------------

 NO OUTPUT CONTROL FOR STRESS PERIOD   15   TIME STEP   24
 
 SOLVING FOR HEAD 
                                                   Max.-Head-Change                         Max.-Flux-Residual
  Residual-Control   Outer-Iter.   Inner-Iter.     Column Row Layer    Maximum-Head-Change  Column Row Layer    Maximum-Flux-Residual          L2-NORM 
          0                 1           2             4    7     1       0.4355840766E-02       4    7    1         0.2284159217E+00      0.6047641219E+00
          0                 2           2             4    7     1      -0.4237048882E-03       4    7    1        -0.2284161661E-01      0.5967662876E-01
          0                 3           1             4    7     1       0.2885272921E-04       4    7    1         0.1598913605E-02      0.4196168737E-02

    ------------------------------------------------
       NWT REQUIRED            3 OUTER ITERATIONS 
       AND A TOTAL OF          5 INNER ITERATIONS.
    ------------------------------------------------

 NO OUTPUT CONTROL FOR STRESS PERIOD   15   TIME STEP   25
 
 SOLVING FOR HEAD 
                                                   Max.-Head-Change                         Max.-Flux-Residual
  Residual-Control   Outer-Iter.   Inner-Iter.     Column Row Layer    Maximum-Head-Change  Column Row Layer    Maximum-Flux-Residual          L2-NORM 
          0                 1           2             4    7     1       0.4319594982E-02       4    7    1         0.2265070142E+00      0.6007907039E+00
          0                 2           2             4    7     1      -0.4201791552E-03       4    7    1        -0.2265072539E-01      0.5927530271E-01
          0                 3           1             4    7     1       0.2861264027E-04       4    7    1         0.1585551240E-02      0.4168162566E-02

    ------------------------------------------------
       NWT REQUIRED            3 OUTER ITERATIONS 
       AND A TOTAL OF          5 INNER ITERATIONS.
    ------------------------------------------------

 NO OUTPUT CONTROL FOR STRESS PERIOD   15   TIME STEP   26
 
 SOLVING FOR HEAD 
                                                   Max.-Head-Change                         Max.-Flux-Residual
  Residual-Control   Outer-Iter.   Inner-Iter.     Column Row Layer    Maximum-Head-Change  Column Row Layer    Maximum-Flux-Residual          L2-NORM 
          0                 1           2             4    7     1       0.4283608814E-02       4    7    1         0.2246114734E+00      0.5968542109E+00
          0                 2           2             4    7     1      -0.4166786752E-03       4    7    1        -0.2246117082E-01      0.5887765349E-01
          0                 3           1             4    7     1       0.2837427053E-04       4    7    1         0.1572282424E-02      0.4140410873E-02

    ------------------------------------------------
       NWT REQUIRED            3 OUTER ITERATIONS 
       AND A TOTAL OF          5 INNER ITERATIONS.
    ------------------------------------------------

 NO OUTPUT CONTROL FOR STRESS PERIOD   15   TIME STEP   27
 
 SOLVING FOR HEAD 
                                                   Max.-Head-Change                         Max.-Flux-Residual
  Residual-Control   Outer-Iter.   Inner-Iter.     Column Row Layer    Maximum-Head-Change  Column Row Layer    Maximum-Flux-Residual          L2-NORM 
          0                 1           2             4    7     1       0.4248159721E-02       4    7    1         0.2227442088E+00      0.5929744068E+00
          0                 2           2             4    7     1      -0.4132304383E-03       4    7    1        -0.2227444391E-01      0.5848567839E-01
          0                 3           1             4    7     1       0.2813945822E-04       4    7    1         0.1559211525E-02      0.4113079078E-02

    ------------------------------------------------
       NWT REQUIRED            3 OUTER ITERATIONS 
       AND A TOTAL OF          5 INNER ITERATIONS.
    ------------------------------------------------

 NO OUTPUT CONTROL FOR STRESS PERIOD   15   TIME STEP   28
 
 SOLVING FOR HEAD 
                                                   Max.-Head-Change                         Max.-Flux-Residual
  Residual-Control   Outer-Iter.   Inner-Iter.     Column Row Layer    Maximum-Head-Change  Column Row Layer    Maximum-Flux-Residual          L2-NORM 
          0                 1           2             4    7     1       0.4213227649E-02       4    7    1         0.2209048121E+00      0.5891327693E+00
          0                 2           2             4    7     1      -0.4098367321E-03       4    7    1        -0.2209050379E-01      0.5810163768E-01
          0                 3           1             4    7     1       0.2790835955E-04       4    7    1         0.1546335713E-02      0.4086298479E-02

    ------------------------------------------------
       NWT REQUIRED            3 OUTER ITERATIONS 
       AND A TOTAL OF          5 INNER ITERATIONS.
    ------------------------------------------------

 NO OUTPUT CONTROL FOR STRESS PERIOD   15   TIME STEP   29
 
 SOLVING FOR HEAD 
                                                   Max.-Head-Change                         Max.-Flux-Residual
  Residual-Control   Outer-Iter.   Inner-Iter.     Column Row Layer    Maximum-Head-Change  Column Row Layer    Maximum-Flux-Residual          L2-NORM 
          0                 1           2             4   13     1       0.2700112769E-01       4   13    1         0.1562695352E+01      0.2850273536E+01
          0                 2           2             4   13     1      -0.2596985619E-02       4   13    1        -0.1545417744E+00      0.2727577842E+00
          0                 3           2             4   13     1       0.1740930667E-03       4   13    1         0.1065201104E-01      0.1829406844E-01
          0                 4           1             4   13     1      -0.6747735151E-05       4   13    1        -0.4245393611E-03      0.6988779259E-03

    ------------------------------------------------
       NWT REQUIRED            4 OUTER ITERATIONS 
       AND A TOTAL OF          7 INNER ITERATIONS.
    ------------------------------------------------

 NO OUTPUT CONTROL FOR STRESS PERIOD   15   TIME STEP   30



 STREAM LISTING     PERIOD     15   STEP       30

 LAYER ROW COL. STREAM  RCH.  FLOW INTO     FLOW TO   FLOW OUT OF   OVRLND.     DIRECT     STREAM       STREAM     STREAM     STREAM   STREAMBED  STREAMBED
                SEG.NO.  NO.  STRM. RCH.    AQUIFER    STRM. RCH.    RUNOFF     PRECIP       ET          HEAD       DEPTH      WIDTH   CONDCTNC.   GRADIENT

   1    1    1     1     1    8.9913E+01  4.5469E-01   8.9459E+01  0.000E+00  0.000E+00  0.000E+00  1.09481E+03  1.761E+00  2.122E+01  9.549E-02  1.587E+00
   1    2    2     1     2    8.9459E+01  7.0544E-01   8.8753E+01  0.000E+00  0.000E+00  0.000E+00  1.08982E+03  1.759E+00  2.118E+01  1.482E-01  1.586E+00
   1    3    3     1     3    8.8753E+01  6.0286E-01   8.8150E+01  0.000E+00  0.000E+00  0.000E+00  1.08418E+03  1.757E+00  2.112E+01  1.267E-01  1.586E+00
   1    3    4     1     4    8.8150E+01  5.5617E-01   8.7594E+01  0.000E+00  0.000E+00  0.000E+00  1.07916E+03  1.754E+00  2.108E+01  1.170E-01  1.585E+00
   1    4    5     2     1    8.5594E+01  4.3081E-01   8.5163E+01  0.000E+00  0.000E+00  0.000E+00  1.07446E+03  2.523E+00  1.200E+01  7.800E-02  1.841E+00
   1    5    6     2     2    8.5163E+01  3.3099E-01   8.4832E+01  0.000E+00  0.000E+00  0.000E+00  1.06903E+03  2.516E+00  1.200E+01  6.000E-02  1.839E+00
   1    6    6     2     3    8.4832E+01  3.3063E-01   8.4502E+01  0.000E+00  0.000E+00  0.000E+00  1.06430E+03  2.511E+00  1.200E+01  6.000E-02  1.837E+00
   1    7    6     2     4    8.4502E+01  3.3028E-01   8.4171E+01  0.000E+00  0.000E+00  0.000E+00  1.05958E+03  2.505E+00  1.200E+01  6.000E-02  1.835E+00
   1    8    6     2     5    8.4171E+01  3.2993E-01   8.3841E+01  0.000E+00  0.000E+00  0.000E+00  1.05486E+03  2.499E+00  1.200E+01  6.000E-02  1.833E+00
   1    3    5     3     1    2.0000E+00  2.8252E-01   1.7175E+00  0.000E+00  0.000E+00  0.000E+00  1.07555E+03  1.909E+00  9.636E+00  7.227E-02  1.955E+00
   1    3    6     3     2    1.7175E+00  2.4905E-01   1.4684E+00  0.000E+00  0.000E+00  0.000E+00  1.07264E+03  1.727E+00  8.909E+00  6.682E-02  1.864E+00
   1    3    7     3     3    1.4684E+00  1.9718E-01   1.2712E+00  0.000E+00  0.000E+00  0.000E+00  1.06987E+03  1.555E+00  8.218E+00  5.547E-02  1.777E+00
   1    4    8     3     4    1.2712E+00  2.2567E-01   1.0456E+00  0.000E+00  0.000E+00  0.000E+00  1.06682E+03  1.364E+00  7.455E+00  6.709E-02  1.682E+00
   1    5    8     3     5    1.0456E+00  1.5790E-01   8.8768E-01  0.000E+00  0.000E+00  0.000E+00  1.06362E+03  1.164E+00  6.655E+00  4.991E-02  1.582E+00
   1    6    8     3     6    8.8768E-01  5.5980E-02   8.3170E-01  0.000E+00  0.000E+00  0.000E+00  1.06158E+03  1.036E+00  6.145E+00  1.844E-02  1.518E+00
   1    5   10     4     1    1.0000E+01  9.0919E-02   9.9091E+00  0.000E+00  0.000E+00  0.000E+00  1.07836E+03  6.368E-01  1.000E+01  2.500E-02  1.212E+00
   1    5    9     4     2    9.9091E+00  1.8158E-01   9.7275E+00  0.000E+00  0.000E+00  0.000E+00  1.07154E+03  6.315E-01  1.000E+01  5.000E-02  1.211E+00
   1    6    8     4     3    9.7275E+00  1.2689E-01   9.6006E+00  0.000E+00  0.000E+00  0.000E+00  1.06381E+03  6.256E-01  1.000E+01  3.500E-02  1.209E+00
   1    6    8     5     1    1.0432E+01  2.2686E-01   1.0205E+01  0.000E+00  0.000E+00  0.000E+00  1.05868E+03  6.790E-01  1.542E+01  6.166E-02  1.226E+00
   1    7    7     5     2    1.0205E+01  2.7894E-01   9.9265E+00  0.000E+00  0.000E+00  0.000E+00  1.05417E+03  6.732E-01  1.519E+01  7.594E-02  1.224E+00
   1    8    7     5     3    9.9265E+00  1.9221E-01   9.7343E+00  0.000E+00  0.000E+00  0.000E+00  1.04992E+03  6.676E-01  1.497E+01  5.241E-02  1.223E+00
   1    8    6     5     4    9.7343E+00  1.3577E-01   9.5985E+00  0.000E+00  0.000E+00  0.000E+00  1.04691E+03  6.637E-01  1.482E+01  3.706E-02  1.221E+00
   1    9    6     6     1    9.3440E+01  3.4142E-01   9.3099E+01  0.000E+00  0.000E+00  0.000E+00  1.04542E+03  2.690E+00  1.200E+01  6.000E-02  1.897E+00
   1   10    7     6     2    9.3099E+01  3.4107E-01   9.2757E+01  0.000E+00  0.000E+00  0.000E+00  1.04087E+03  2.684E+00  1.200E+01  6.000E-02  1.895E+00
   1   11    7     6     3    9.2757E+01  3.4071E-01   9.2417E+01  0.000E+00  0.000E+00  0.000E+00  1.03631E+03  2.679E+00  1.200E+01  6.000E-02  1.893E+00
   1   12    7     6     4    9.2417E+01  3.4036E-01   9.2076E+01  0.000E+00  0.000E+00  0.000E+00  1.03176E+03  2.673E+00  1.200E+01  6.000E-02  1.891E+00
   1   13    7     6     5    9.2076E+01  3.5316E-02   9.2041E+01  0.000E+00  0.000E+00  0.000E+00  1.02858E+03  2.669E+00  1.200E+01  2.400E-02  4.905E-01
   1   14    9     7     1    1.5000E+02  1.3335E+00   1.4867E+02  0.000E+00  0.000E+00  0.000E+00  1.03987E+03  2.288E+00  5.529E+01  5.593E-01  7.947E-01
   1   13    8     7     2    1.4867E+02  1.8229E+00   1.4684E+02  0.000E+00  0.000E+00  0.000E+00  1.03478E+03  2.279E+00  5.526E+01  6.148E-01  9.884E-01
   1   13    7     7     3    1.4684E+02  1.4425E+00   1.4540E+02  0.000E+00  0.000E+00  0.000E+00  1.02969E+03  2.271E+00  5.522E+01  5.585E-01  8.610E-01
   1   13    6     8     1    2.3744E+02  1.2069E+00   2.3624E+02  0.000E+00  0.000E+00  0.000E+00  1.02522E+03  3.343E+00  4.847E+01  4.940E-01  8.144E-01
   1   13    5     8     2    2.3624E+02  3.6160E-01   2.3587E+02  0.000E+00  0.000E+00  0.000E+00  1.01896E+03  3.339E+00  4.841E+01  4.934E-01  2.443E-01
   1   13    4     8     3    2.3587E+02 -1.0849E+00   2.3696E+02  0.000E+00  0.000E+00  0.000E+00  1.01272E+03  3.341E+00  4.844E+01  4.936E+00 -7.326E-02
   1   13    3     8     4    2.3696E+02 -2.4162E+00   2.3937E+02  0.000E+00  0.000E+00  0.000E+00  1.00648E+03  3.350E+00  4.858E+01  4.950E+00 -1.627E-01
   1   13    2     8     5    2.3937E+02 -1.2111E+00   2.4059E+02  0.000E+00  0.000E+00  0.000E+00  1.00023E+03  3.360E+00  4.871E+01  4.964E+00 -8.132E-02
   1   13    1     8     6    2.4059E+02 -1.1918E+00   2.4178E+02  0.000E+00  0.000E+00  0.000E+00  9.95241E+02  3.366E+00  4.881E+01  2.984E+00 -1.331E-01





UNSATURATED ZONE PACKAGE VOLUMETRIC BUDGET FOR  TIME STEP    30 STRESS PERIOD   15
  ------------------------------------------------------------------------------



     CUMULATIVE VOLUMES      L**3       RATES FOR THIS TIME STEP      L**3/T
     ------------------                 ------------------------

           IN:                                      IN:
           ---                                      ---
        INFILTRATION =   201027129.6343          INFILTRATION =           0.8475

          OUT:                                     OUT:
          ----                                     ----
              UZF ET =    93931005.0970                UZF ET =           0.0434
        UZF RECHARGE =     8817255.5664          UZF RECHARGE =           0.1085

            IN - OUT =    98278868.9709              IN - OUT =           0.6956

          STORAGE:                                 STORAGE:
          --------                                 --------
      STORAGE CHANGE =    98341079.2491        STORAGE CHANGE =           0.6956

 PERCENT DISCREPANCY IS DIFFERENCE BETWEEN IN-OUT MINUS CHANGE IN STORAGE
 DIVIDED BY THE AVERAGE OF IN AND OUT TIMES 100

 PERCENT DISCREPANCY =          -0.01     PERCENT DISCREPANCY =          -0.00






1
  VOLUMETRIC BUDGET FOR ENTIRE MODEL AT END OF TIME STEP   30, STRESS PERIOD  15
  ------------------------------------------------------------------------------

     CUMULATIVE VOLUMES      L**3       RATES FOR THIS TIME STEP      L**3/T
     ------------------                 ------------------------

           IN:                                      IN:
           ---                                      ---
               AWU WELLS =   169772608.0000                 AWU WELLS =           0.0000
      DIVERSION SEGMENTS =           0.0000        DIVERSION SEGMENTS =           0.0000
           GW IRRIGATION =           0.0000             GW IRRIGATION =           0.0000
           SW IRRIGATION =           0.0000             SW IRRIGATION =           0.0000
        SYSTEM LOSSES GW =           0.0000          SYSTEM LOSSES GW =           0.0000
        SYSTEM LOSSES SW =           0.0000          SYSTEM LOSSES SW =           0.0000

                TOTAL IN =   169772608.0000                  TOTAL IN =           0.0000

          OUT:                                     OUT:
          ----                                     ----
               AWU WELLS =           0.0000                 AWU WELLS =           0.0000
      DIVERSION SEGMENTS =           0.0000        DIVERSION SEGMENTS =           0.0000
           GW IRRIGATION =   169772608.0000             GW IRRIGATION =           0.0000
           SW IRRIGATION =           0.0000             SW IRRIGATION =           0.0000
        SYSTEM LOSSES GW =           0.0000          SYSTEM LOSSES GW =           0.0000
        SYSTEM LOSSES SW =           0.0000          SYSTEM LOSSES SW =           0.0000

               TOTAL OUT =   169772608.0000                 TOTAL OUT =           0.0000

                IN - OUT =           0.0000                  IN - OUT =           0.0000

     PERCENT DISCREPANCY =           0.00         PERCENT DISCREPANCY =           0.00



1
  VOLUMETRIC BUDGET FOR ENTIRE MODEL AT END OF TIME STEP   30, STRESS PERIOD  15
  ------------------------------------------------------------------------------

     CUMULATIVE VOLUMES      L**3       RATES FOR THIS TIME STEP      L**3/T
     ------------------                 ------------------------

           IN:                                      IN:
           ---                                      ---
             STORAGE     =   297353824.0000               STORAGE     =           1.2989
       CONSTANT HEAD     =           0.0000         CONSTANT HEAD     =           0.0000
     HEAD DEP BOUNDS     =    10535129.0000       HEAD DEP BOUNDS     =           0.2856
      STREAM LEAKAGE     =   461630752.0000        STREAM LEAKAGE     =          14.0395
        UZF RECHARGE     =     8817260.0000          UZF RECHARGE     =           0.1085
               GW ET     =           0.0000                 GW ET     =           0.0000
     SURFACE LEAKAGE     =           0.0000       SURFACE LEAKAGE     =           0.0000
           AWU WELLS     =           0.0000             AWU WELLS     =           0.0000

                TOTAL IN =   778337024.0000                  TOTAL IN =          15.7325

          OUT:                                     OUT:
          ----                                     ----
             STORAGE     =   187970416.0000               STORAGE     =           9.5287
       CONSTANT HEAD     =           0.0000         CONSTANT HEAD     =           0.0000
     HEAD DEP BOUNDS     =    10703125.0000       HEAD DEP BOUNDS     =           0.2903
      STREAM LEAKAGE     =   354670432.0000        STREAM LEAKAGE     =           5.9039
        UZF RECHARGE     =           0.0000          UZF RECHARGE     =           0.0000
               GW ET     =    55226200.0000                 GW ET     =       9.5247E-03
     SURFACE LEAKAGE     =           0.0000       SURFACE LEAKAGE     =           0.0000
           AWU WELLS     =   169772608.0000             AWU WELLS     =           0.0000

               TOTAL OUT =   778342784.0000                 TOTAL OUT =          15.7324

                IN - OUT =       -5760.0000                  IN - OUT =       3.5286E-05

     PERCENT DISCREPANCY =          -0.00         PERCENT DISCREPANCY =           0.00






         TIME SUMMARY AT END OF TIME STEP   30 IN STRESS PERIOD   15
                    SECONDS     MINUTES      HOURS       DAYS        YEARS
                    -----------------------------------------------------------
   TIME STEP LENGTH  87600.      1460.0      24.333      1.0139     2.77588E-03
 STRESS PERIOD TIME 2.62800E+06  43800.      730.00      30.417     8.32763E-02
         TOTAL TIME 3.68784E+07 6.14640E+05  10244.      426.83      1.1686    
1
1
                            STRESS PERIOD NO.   16, LENGTH =   2628000.    
                            -----------------------------------------------

                              NUMBER OF TIME STEPS =    30

                               MULTIPLIER FOR DELT =     1.000

                            INITIAL TIME STEP SIZE =   87600.00    

 REUSING NON-PARAMETER GHB CELLS FROM LAST STRESS PERIOD

      2 GHB CELLS

 REUSING STREAM SEGMENT DATA FROM LAST STRESS PERIOD



            AREAL INFILTRATION RATE
 READING ON UNIT   19 WITH FORMAT: (10F4.0)            

            1           2           3           4           5           6           7           8           9          10
 ........................................................................................................................
   1   1.0000E-10  2.0000E-10   0.000       0.000       0.000       0.000       0.000       0.000       0.000       0.000    
   2   2.0000E-10  1.0000E-10  2.0000E-10   0.000       0.000      8.0000E-10  8.0000E-10  5.0000E-10   0.000       0.000    
   3    0.000      5.0000E-10  1.0000E-10  1.0000E-10  8.0000E-10  8.0000E-10  5.0000E-10  5.0000E-10   0.000       0.000    
   4   8.0000E-10  5.0000E-10  1.0000E-10  1.0000E-10  1.0000E-10  1.0000E-10  1.0000E-10  1.0000E-10  2.0000E-10   0.000    
   5   8.0000E-10  5.0000E-10  1.0000E-10  1.0000E-10  1.0000E-10  1.0000E-10  1.0000E-10  1.0000E-10  1.0000E-10  1.0000E-10
   6   8.0000E-10  5.0000E-10  5.0000E-10  2.0000E-10  2.0000E-10  1.0000E-10  1.0000E-10  1.0000E-10  1.0000E-10  5.0000E-10
   7   8.0000E-10  5.0000E-10  5.0000E-10  2.0000E-10  2.0000E-10  1.0000E-10  1.0000E-10  2.0000E-10  2.0000E-10   0.000    
   8    0.000      5.0000E-10  5.0000E-10  2.0000E-10  2.0000E-10  1.0000E-10  1.0000E-10  2.0000E-10  5.0000E-10   0.000    
   9    0.000      5.0000E-10  5.0000E-10  2.0000E-10  2.0000E-10  1.0000E-10  1.0000E-10  2.0000E-10  5.0000E-10   0.000    
  10    0.000      5.0000E-10  5.0000E-10  2.0000E-10  2.0000E-10  1.0000E-10  1.0000E-10  2.0000E-10  5.0000E-10  8.0000E-10
  11    0.000      1.0000E-10  1.0000E-10  1.0000E-10  1.0000E-10  1.0000E-10  1.0000E-10  2.0000E-10  5.0000E-10   0.000    
  12   1.0000E-10  1.0000E-10  1.0000E-10  1.0000E-10  1.0000E-10  1.0000E-10  1.0000E-10  1.0000E-10  2.0000E-10   0.000    
  13   1.0000E-10  1.0000E-10  2.0000E-10  2.0000E-10  2.0000E-10  2.0000E-10  2.0000E-10  1.0000E-10  1.0000E-10   0.000    
  14    0.000      2.0000E-10  5.0000E-10  5.0000E-10  5.0000E-10  5.0000E-10  5.0000E-10  2.0000E-10  1.0000E-10   0.000    
  15    0.000       0.000      8.0000E-10  8.0000E-10  8.0000E-10  8.0000E-10   0.000       0.000       0.000       0.000    

                  ET RATE =  1.000000E-09

 USING ET EXTINCTION DEPTH FROM PREVIOUS STRESS PERIOD. CURRENT PERIOD IS:      16

 USING EXTINCTION WATER CONTENT FROM PREVIOUS STRESS PERIOD. CURRENT PERIOD IS:      16

 PROCESSING AWU STRESS PERIOD DATA

 READING AWU STRESS PERIOD DATA

 READING IRRIGATION WELL

 END PROCESSING AWU STRESS PERIOD DATA OPTIONS
 
 SOLVING FOR HEAD 
                                                   Max.-Head-Change                         Max.-Flux-Residual
  Residual-Control   Outer-Iter.   Inner-Iter.     Column Row Layer    Maximum-Head-Change  Column Row Layer    Maximum-Flux-Residual          L2-NORM 
          0                 1           2             4   13     1       0.2722781347E-01       4   13    1         0.1576751798E+01      0.2927998713E+01
          0                 2           2             4   13     1      -0.2618355331E-02       4   13    1        -0.1559058662E+00      0.2798445535E+00
          0                 3           2             4   13     1       0.1754850877E-03       4   13    1         0.1074351768E-01      0.1875912292E-01
          0                 4           1             4   13     1      -0.6791053292E-05       4   13    1        -0.4275112369E-03      0.7156631896E-03

    ------------------------------------------------
       NWT REQUIRED            4 OUTER ITERATIONS 
       AND A TOTAL OF          7 INNER ITERATIONS.
    ------------------------------------------------

 NO OUTPUT CONTROL FOR STRESS PERIOD   16   TIME STEP    1
 
 SOLVING FOR HEAD 
                                                   Max.-Head-Change                         Max.-Flux-Residual
  Residual-Control   Outer-Iter.   Inner-Iter.     Column Row Layer    Maximum-Head-Change  Column Row Layer    Maximum-Flux-Residual          L2-NORM 
          0                 1           2             2   13     1       0.2478288172E-01       4   13    1         0.1416499677E+01      0.2704392883E+01
          0                 2           2             4   13     1      -0.2353576006E-02       4   13    1        -0.1400573937E+00      0.2580378797E+00
          0                 3           2             4   13     1       0.1577386568E-03       4   13    1         0.9651264265E-02      0.1731198922E-01
          0                 4           1             4   13     1      -0.6127663191E-05       4   13    1        -0.3855225978E-03      0.6629859331E-03

    ------------------------------------------------
       NWT REQUIRED            4 OUTER ITERATIONS 
       AND A TOTAL OF          7 INNER ITERATIONS.
    ------------------------------------------------

 NO OUTPUT CONTROL FOR STRESS PERIOD   16   TIME STEP    2
 
 SOLVING FOR HEAD 
                                                   Max.-Head-Change                         Max.-Flux-Residual
  Residual-Control   Outer-Iter.   Inner-Iter.     Column Row Layer    Maximum-Head-Change  Column Row Layer    Maximum-Flux-Residual          L2-NORM 
          0                 1           2             2   13     1       0.2275777823E-01       2   13    1         0.1293038302E+01      0.2503394422E+01
          0                 2           2             4   13     1      -0.2116834552E-02       4   13    1        -0.1258917272E+00      0.2384051398E+00
          0                 3           2             4   13     1       0.1418695972E-03       4   13    1         0.8674892118E-02      0.1600953512E-01
          0                 4           1             4   13     1      -0.5482917544E-05       4   13    1        -0.3447233757E-03      0.6134953425E-03

    ------------------------------------------------
       NWT REQUIRED            4 OUTER ITERATIONS 
       AND A TOTAL OF          7 INNER ITERATIONS.
    ------------------------------------------------

 NO OUTPUT CONTROL FOR STRESS PERIOD   16   TIME STEP    3
 
 SOLVING FOR HEAD 
                                                   Max.-Head-Change                         Max.-Flux-Residual
  Residual-Control   Outer-Iter.   Inner-Iter.     Column Row Layer    Maximum-Head-Change  Column Row Layer    Maximum-Flux-Residual          L2-NORM 
          0                 1           2             2   13     1       0.2089885723E-01       2   13    1         0.1187302464E+01      0.2322821707E+01
          0                 2           2             2   13     1      -0.1934269801E-02       4   13    1        -0.1132249055E+00      0.2207250746E+00
          0                 3           2             4   13     1       0.1276818891E-03       4   13    1         0.7802248795E-02      0.1483840869E-01
          0                 4           1             4   13     1      -0.4952072353E-05       4   13    1        -0.3111448259E-03      0.5709145456E-03

    ------------------------------------------------
       NWT REQUIRED            4 OUTER ITERATIONS 
       AND A TOTAL OF          7 INNER ITERATIONS.
    ------------------------------------------------

 NO OUTPUT CONTROL FOR STRESS PERIOD   16   TIME STEP    4
 
 SOLVING FOR HEAD 
                                                   Max.-Head-Change                         Max.-Flux-Residual
  Residual-Control   Outer-Iter.   Inner-Iter.     Column Row Layer    Maximum-Head-Change  Column Row Layer    Maximum-Flux-Residual          L2-NORM 
          0                 1           2             2   13     1       0.1919255405E-01       2   13    1         0.1090249009E+01      0.2160695691E+01
          0                 2           2             2   13     1      -0.1777523720E-02       2   13    1        -0.1037958436E+00      0.2048218480E+00
          0                 3           2             4   13     1       0.1149689085E-03       4   13    1         0.7020584811E-02      0.1378529989E-01
          0                 4           1             4   13     1      -0.4454707189E-05       4   13    1        -0.2796994868E-03      0.5315855707E-03

    ------------------------------------------------
       NWT REQUIRED            4 OUTER ITERATIONS 
       AND A TOTAL OF          7 INNER ITERATIONS.
    ------------------------------------------------

 NO OUTPUT CONTROL FOR STRESS PERIOD   16   TIME STEP    5
 
 SOLVING FOR HEAD 
                                                   Max.-Head-Change                         Max.-Flux-Residual
  Residual-Control   Outer-Iter.   Inner-Iter.     Column Row Layer    Maximum-Head-Change  Column Row Layer    Maximum-Flux-Residual          L2-NORM 
          0                 1           2             2   13     1       0.1762661345E-01       2   13    1         0.1001181323E+01      0.2015246255E+01
          0                 2           2             2   13     1      -0.1633521294E-02       2   13    1        -0.9537584734E-01      0.1905251501E+00
          0                 3           1             2   13     1       0.1037847150E-03       4   13    1         0.6321702962E-02      0.1284022665E-01
          0                 4           1             4   13     1      -0.4003459148E-05       4   13    1        -0.2512521814E-03      0.4971823757E-03

    ------------------------------------------------
       NWT REQUIRED            4 OUTER ITERATIONS 
       AND A TOTAL OF          6 INNER ITERATIONS.
    ------------------------------------------------

 NO OUTPUT CONTROL FOR STRESS PERIOD   16   TIME STEP    6
 
 SOLVING FOR HEAD 
                                                   Max.-Head-Change                         Max.-Flux-Residual
  Residual-Control   Outer-Iter.   Inner-Iter.     Column Row Layer    Maximum-Head-Change  Column Row Layer    Maximum-Flux-Residual          L2-NORM 
          0                 1           2             2   13     1       0.1618953077E-01       2   13    1         0.9194452474E+00      0.1884848944E+01
          0                 2           2             2   13     1      -0.1501178454E-02       2   13    1        -0.8763788790E-01      0.1776686683E+00
          0                 3           1             2   13     1       0.9546210628E-04       2   13    1         0.5727571832E-02      0.1199081340E-01

    ------------------------------------------------
       NWT REQUIRED            3 OUTER ITERATIONS 
       AND A TOTAL OF          5 INNER ITERATIONS.
    ------------------------------------------------

 NO OUTPUT CONTROL FOR STRESS PERIOD   16   TIME STEP    7
 
 SOLVING FOR HEAD 
                                                   Max.-Head-Change                         Max.-Flux-Residual
  Residual-Control   Outer-Iter.   Inner-Iter.     Column Row Layer    Maximum-Head-Change  Column Row Layer    Maximum-Flux-Residual          L2-NORM 
          0                 1           2             2   13     1       0.1487048491E-01       2   13    1         0.8444253828E+00      0.1768012055E+01
          0                 2           2             2   13     1      -0.1372076780E-02       2   13    1        -0.8052947921E-01      0.1505790483E+00
          0                 3           1             2   13     1       0.8870783689E-04       2   13    1         0.5371097486E-02      0.1025288414E-01

    ------------------------------------------------
       NWT REQUIRED            3 OUTER ITERATIONS 
       AND A TOTAL OF          5 INNER ITERATIONS.
    ------------------------------------------------

 NO OUTPUT CONTROL FOR STRESS PERIOD   16   TIME STEP    8
 
 SOLVING FOR HEAD 
                                                   Max.-Head-Change                         Max.-Flux-Residual
  Residual-Control   Outer-Iter.   Inner-Iter.     Column Row Layer    Maximum-Head-Change  Column Row Layer    Maximum-Flux-Residual          L2-NORM 
          0                 1           2             2   13     1       0.1366814638E-01       2   13    1         0.7760579671E+00      0.1663515095E+01
          0                 2           2             2   13     1      -0.1256834447E-02       2   13    1        -0.7404563037E-01      0.1225338251E+00
          0                 3           1             2   13     1       0.8458046070E-04       2   13    1         0.5146602674E-02      0.7846703552E-02

    ------------------------------------------------
       NWT REQUIRED            3 OUTER ITERATIONS 
       AND A TOTAL OF          5 INNER ITERATIONS.
    ------------------------------------------------

 NO OUTPUT CONTROL FOR STRESS PERIOD   16   TIME STEP    9
 
 SOLVING FOR HEAD 
                                                   Max.-Head-Change                         Max.-Flux-Residual
  Residual-Control   Outer-Iter.   Inner-Iter.     Column Row Layer    Maximum-Head-Change  Column Row Layer    Maximum-Flux-Residual          L2-NORM 
          0                 1           2             2   13     1       0.1257083419E-01       2   13    1         0.7137163852E+00      0.1566891374E+01
          0                 2           2             2   13     1      -0.1151146092E-02       2   13    1        -0.6815243086E-01      0.1064719334E+00
          0                 3           1             2   13     1       0.7808859096E-04       2   13    1         0.4741828860E-02      0.7353182799E-02

    ------------------------------------------------
       NWT REQUIRED            3 OUTER ITERATIONS 
       AND A TOTAL OF          5 INNER ITERATIONS.
    ------------------------------------------------

 NO OUTPUT CONTROL FOR STRESS PERIOD   16   TIME STEP   10
 
 SOLVING FOR HEAD 
                                                   Max.-Head-Change                         Max.-Flux-Residual
  Residual-Control   Outer-Iter.   Inner-Iter.     Column Row Layer    Maximum-Head-Change  Column Row Layer    Maximum-Flux-Residual          L2-NORM 
          0                 1           2             2   13     1       0.1156683958E-01       2   13    1         0.6567059452E+00      0.1477802312E+01
          0                 2           2             5   13     1      -0.4441961801E-03       5   13    1        -0.2479625877E-01      0.8110101352E-01
          0                 3           1             5   13     1       0.3049135909E-04       5   13    1         0.1738295552E-02      0.5580595066E-02

    ------------------------------------------------
       NWT REQUIRED            3 OUTER ITERATIONS 
       AND A TOTAL OF          5 INNER ITERATIONS.
    ------------------------------------------------

 NO OUTPUT CONTROL FOR STRESS PERIOD   16   TIME STEP   11
 
 SOLVING FOR HEAD 
                                                   Max.-Head-Change                         Max.-Flux-Residual
  Residual-Control   Outer-Iter.   Inner-Iter.     Column Row Layer    Maximum-Head-Change  Column Row Layer    Maximum-Flux-Residual          L2-NORM 
          0                 1           2             2   13     1       0.1058319804E-01       2   13    1         0.6007986679E+00      0.1397860367E+01
          0                 2           2             3    3     1      -0.4281705820E-03       3    3    1        -0.2315783297E-01      0.7842230025E-01
          0                 3           1             3    3     1       0.2917086661E-04       3    3    1         0.1621186106E-02      0.5298410363E-02

    ------------------------------------------------
       NWT REQUIRED            3 OUTER ITERATIONS 
       AND A TOTAL OF          5 INNER ITERATIONS.
    ------------------------------------------------

 NO OUTPUT CONTROL FOR STRESS PERIOD   16   TIME STEP   12
 
 SOLVING FOR HEAD 
                                                   Max.-Head-Change                         Max.-Flux-Residual
  Residual-Control   Outer-Iter.   Inner-Iter.     Column Row Layer    Maximum-Head-Change  Column Row Layer    Maximum-Flux-Residual          L2-NORM 
          0                 1           2             2   13     1       0.9637353869E-02       2   13    1         0.5470083614E+00      0.1326668307E+01
          0                 2           2             3    3     1      -0.4234618178E-03       3    3    1        -0.2290288960E-01      0.7544618615E-01
          0                 3           1             3    3     1       0.2885222486E-04       3    3    1         0.1603357085E-02      0.5228757842E-02

    ------------------------------------------------
       NWT REQUIRED            3 OUTER ITERATIONS 
       AND A TOTAL OF          5 INNER ITERATIONS.
    ------------------------------------------------

 NO OUTPUT CONTROL FOR STRESS PERIOD   16   TIME STEP   13
 
 SOLVING FOR HEAD 
                                                   Max.-Head-Change                         Max.-Flux-Residual
  Residual-Control   Outer-Iter.   Inner-Iter.     Column Row Layer    Maximum-Head-Change  Column Row Layer    Maximum-Flux-Residual          L2-NORM 
          0                 1           2             2   13     1       0.8777579729E-02       2   13    1         0.4981162119E+00      0.1263692343E+01
          0                 2           2             3    3     1      -0.4188417170E-03       3    3    1        -0.2265272962E-01      0.7475444828E-01
          0                 3           1             3    3     1       0.2853959746E-04       3    3    1         0.1585862689E-02      0.5196424675E-02

    ------------------------------------------------
       NWT REQUIRED            3 OUTER ITERATIONS 
       AND A TOTAL OF          5 INNER ITERATIONS.
    ------------------------------------------------

 NO OUTPUT CONTROL FOR STRESS PERIOD   16   TIME STEP   14
 
 SOLVING FOR HEAD 
                                                   Max.-Head-Change                         Max.-Flux-Residual
  Residual-Control   Outer-Iter.   Inner-Iter.     Column Row Layer    Maximum-Head-Change  Column Row Layer    Maximum-Flux-Residual          L2-NORM 
          0                 1           2             1   13     1       0.8076623871E-02       2   13    1         0.4536663568E+00      0.1208282655E+01
          0                 2           2             3    3     1      -0.4143324145E-03       3    3    1        -0.2240851726E-01      0.7410086100E-01
          0                 3           1             3    3     1       0.2823445674E-04       3    3    1         0.1568784156E-02      0.5163073125E-02

    ------------------------------------------------
       NWT REQUIRED            3 OUTER ITERATIONS 
       AND A TOTAL OF          5 INNER ITERATIONS.
    ------------------------------------------------

 NO OUTPUT CONTROL FOR STRESS PERIOD   16   TIME STEP   15
 
 SOLVING FOR HEAD 
                                                   Max.-Head-Change                         Max.-Flux-Residual
  Residual-Control   Outer-Iter.   Inner-Iter.     Column Row Layer    Maximum-Head-Change  Column Row Layer    Maximum-Flux-Residual          L2-NORM 
          0                 1           2             1   13     1       0.7637380952E-02       1   13    1         0.4183369941E+00      0.1159517889E+01
          0                 2           2             3    3     1      -0.4099311191E-03       3    3    1        -0.2217016235E-01      0.7348812426E-01
          0                 3           1             3    3     1       0.2793663680E-04       3    3    1         0.1552115349E-02      0.5130634562E-02

    ------------------------------------------------
       NWT REQUIRED            3 OUTER ITERATIONS 
       AND A TOTAL OF          5 INNER ITERATIONS.
    ------------------------------------------------

 NO OUTPUT CONTROL FOR STRESS PERIOD   16   TIME STEP   16
 
 SOLVING FOR HEAD 
                                                   Max.-Head-Change                         Max.-Flux-Residual
  Residual-Control   Outer-Iter.   Inner-Iter.     Column Row Layer    Maximum-Head-Change  Column Row Layer    Maximum-Flux-Residual          L2-NORM 
          0                 1           2             1   13     1       0.7219318016E-02       1   13    1         0.3955260110E+00      0.1116585837E+01
          0                 2           2             3    3     1      -0.4056357078E-03       3    3    1        -0.2193752694E-01      0.7090013125E-01
          0                 3           1             3    3     1       0.2764598238E-04       3    3    1         0.1535846516E-02      0.4919990898E-02

    ------------------------------------------------
       NWT REQUIRED            3 OUTER ITERATIONS 
       AND A TOTAL OF          5 INNER ITERATIONS.
    ------------------------------------------------

 NO OUTPUT CONTROL FOR STRESS PERIOD   16   TIME STEP   17
 
 SOLVING FOR HEAD 
                                                   Max.-Head-Change                         Max.-Flux-Residual
  Residual-Control   Outer-Iter.   Inner-Iter.     Column Row Layer    Maximum-Head-Change  Column Row Layer    Maximum-Flux-Residual          L2-NORM 
          0                 1           2             1   13     1       0.6821759843E-02       1   13    1         0.3738238023E+00      0.1079055360E+01
          0                 2           2             3    3     1      -0.4014213020E-03       3    3    1        -0.2170923915E-01      0.6978952434E-01
          0                 3           1             3    3     1       0.2736080055E-04       3    3    1         0.1519881637E-02      0.4887840915E-02

    ------------------------------------------------
       NWT REQUIRED            3 OUTER ITERATIONS 
       AND A TOTAL OF          5 INNER ITERATIONS.
    ------------------------------------------------

 NO OUTPUT CONTROL FOR STRESS PERIOD   16   TIME STEP   18
 
 SOLVING FOR HEAD 
                                                   Max.-Head-Change                         Max.-Flux-Residual
  Residual-Control   Outer-Iter.   Inner-Iter.     Column Row Layer    Maximum-Head-Change  Column Row Layer    Maximum-Flux-Residual          L2-NORM 
          0                 1           2             1   13     1       0.6443999521E-02       1   13    1         0.3531933772E+00      0.1045576202E+01
          0                 2           2             3    3     1      -0.3973092461E-03       3    3    1        -0.2148647973E-01      0.6937948317E-01
          0                 3           1             3    3     1       0.2708255798E-04       3    3    1         0.1504303532E-02      0.4865863232E-02

    ------------------------------------------------
       NWT REQUIRED            3 OUTER ITERATIONS 
       AND A TOTAL OF          5 INNER ITERATIONS.
    ------------------------------------------------

 NO OUTPUT CONTROL FOR STRESS PERIOD   16   TIME STEP   19
 
 SOLVING FOR HEAD 
                                                   Max.-Head-Change                         Max.-Flux-Residual
  Residual-Control   Outer-Iter.   Inner-Iter.     Column Row Layer    Maximum-Head-Change  Column Row Layer    Maximum-Flux-Residual          L2-NORM 
          0                 1           2             2    2     1       0.6205358732E-02       1   13    1         0.3335939161E+00      0.1015978743E+01
          0                 2           2             3    3     1      -0.3932744612E-03       3    3    1        -0.2126788985E-01      0.6898562396E-01
          0                 3           1             3    3     1       0.2680953501E-04       3    3    1         0.1489016908E-02      0.4844073724E-02

    ------------------------------------------------
       NWT REQUIRED            3 OUTER ITERATIONS 
       AND A TOTAL OF          5 INNER ITERATIONS.
    ------------------------------------------------

 NO OUTPUT CONTROL FOR STRESS PERIOD   16   TIME STEP   20
 
 SOLVING FOR HEAD 
                                                   Max.-Head-Change                         Max.-Flux-Residual
  Residual-Control   Outer-Iter.   Inner-Iter.     Column Row Layer    Maximum-Head-Change  Column Row Layer    Maximum-Flux-Residual          L2-NORM 
          0                 1           2             2    2     1       0.6161276797E-02       2    2    1         0.3219780413E+00      0.9897743767E+00
          0                 2           2             3    3     1      -0.3893383596E-03       3    3    1        -0.2105463094E-01      0.6860756687E-01
          0                 3           1             3    3     1       0.2654319072E-04       3    3    1         0.1474103100E-02      0.4822657236E-02

    ------------------------------------------------
       NWT REQUIRED            3 OUTER ITERATIONS 
       AND A TOTAL OF          5 INNER ITERATIONS.
    ------------------------------------------------

 NO OUTPUT CONTROL FOR STRESS PERIOD   16   TIME STEP   21
 
 SOLVING FOR HEAD 
                                                   Max.-Head-Change                         Max.-Flux-Residual
  Residual-Control   Outer-Iter.   Inner-Iter.     Column Row Layer    Maximum-Head-Change  Column Row Layer    Maximum-Flux-Residual          L2-NORM 
          0                 1           2             2    2     1       0.6117875877E-02       2    2    1         0.3196945517E+00      0.9665124858E+00
          0                 2           2             3    3     1      -0.3854985691E-03       3    3    1        -0.2084659508E-01      0.6824183034E-01
          0                 3           1             3    3     1       0.2628336536E-04       3    3    1         0.1459554592E-02      0.4801491133E-02

    ------------------------------------------------
       NWT REQUIRED            3 OUTER ITERATIONS 
       AND A TOTAL OF          5 INNER ITERATIONS.
    ------------------------------------------------

 NO OUTPUT CONTROL FOR STRESS PERIOD   16   TIME STEP   22
 
 SOLVING FOR HEAD 
                                                   Max.-Head-Change                         Max.-Flux-Residual
  Residual-Control   Outer-Iter.   Inner-Iter.     Column Row Layer    Maximum-Head-Change  Column Row Layer    Maximum-Flux-Residual          L2-NORM 
          0                 1           2             2    2     1       0.6075144412E-02       2    2    1         0.3174463302E+00      0.9458037556E+00
          0                 2           2             3    3     1      -0.3817531252E-03       3    3    1        -0.2064365423E-01      0.6788647065E-01
          0                 3           1             3    3     1       0.2602993728E-04       3    3    1         0.1445362478E-02      0.4780548884E-02

    ------------------------------------------------
       NWT REQUIRED            3 OUTER ITERATIONS 
       AND A TOTAL OF          5 INNER ITERATIONS.
    ------------------------------------------------

 NO OUTPUT CONTROL FOR STRESS PERIOD   16   TIME STEP   23
 
 SOLVING FOR HEAD 
                                                   Max.-Head-Change                         Max.-Flux-Residual
  Residual-Control   Outer-Iter.   Inner-Iter.     Column Row Layer    Maximum-Head-Change  Column Row Layer    Maximum-Flux-Residual          L2-NORM 
          0                 1           2             2    2     1       0.6032983370E-02       2    2    1         0.3152281847E+00      0.9273230170E+00
          0                 2           2             3    3     1      -0.3780773193E-03       3    3    1        -0.2044445716E-01      0.6754156900E-01
          0                 3           1             3    3     1       0.2578121355E-04       3    3    1         0.1431432148E-02      0.4759888078E-02

    ------------------------------------------------
       NWT REQUIRED            3 OUTER ITERATIONS 
       AND A TOTAL OF          5 INNER ITERATIONS.
    ------------------------------------------------

 NO OUTPUT CONTROL FOR STRESS PERIOD   16   TIME STEP   24
 
 SOLVING FOR HEAD 
                                                   Max.-Head-Change                         Max.-Flux-Residual
  Residual-Control   Outer-Iter.   Inner-Iter.     Column Row Layer    Maximum-Head-Change  Column Row Layer    Maximum-Flux-Residual          L2-NORM 
          0                 1           2             2    2     1       0.5991469955E-02       2    2    1         0.3130441752E+00      0.9107742477E+00
          0                 2           2             3    3     1      -0.3744920727E-03       3    3    1        -0.2025018985E-01      0.6716298188E-01
          0                 3           1             3    3     1       0.2553862984E-04       3    3    1         0.1417846635E-02      0.4737989941E-02

    ------------------------------------------------
       NWT REQUIRED            3 OUTER ITERATIONS 
       AND A TOTAL OF          5 INNER ITERATIONS.
    ------------------------------------------------

 NO OUTPUT CONTROL FOR STRESS PERIOD   16   TIME STEP   25
 
 SOLVING FOR HEAD 
                                                   Max.-Head-Change                         Max.-Flux-Residual
  Residual-Control   Outer-Iter.   Inner-Iter.     Column Row Layer    Maximum-Head-Change  Column Row Layer    Maximum-Flux-Residual          L2-NORM 
          0                 1           2             2    2     1       0.5950505507E-02       2    2    1         0.3108891088E+00      0.8959661915E+00
          0                 2           2             3    3     1      -0.3709956581E-03       3    3    1        -0.2006071700E-01      0.6691160286E-01
          0                 3           1             3    3     1       0.2530204792E-04       3    3    1         0.1404596369E-02      0.4731770861E-02

    ------------------------------------------------
       NWT REQUIRED            3 OUTER ITERATIONS 
       AND A TOTAL OF          5 INNER ITERATIONS.
    ------------------------------------------------

 NO OUTPUT CONTROL FOR STRESS PERIOD   16   TIME STEP   26
 
 SOLVING FOR HEAD 
                                                   Max.-Head-Change                         Max.-Flux-Residual
  Residual-Control   Outer-Iter.   Inner-Iter.     Column Row Layer    Maximum-Head-Change  Column Row Layer    Maximum-Flux-Residual          L2-NORM 
          0                 1           2             2    2     1       0.5910255475E-02       2    2    1         0.3087716638E+00      0.8825781154E+00
          0                 2           2             3    3     1      -0.3675630402E-03       3    3    1        -0.1987468858E-01      0.6659158125E-01
          0                 3           1             3    3     1       0.2506978506E-04       3    3    1         0.1391586970E-02      0.4712108706E-02

    ------------------------------------------------
       NWT REQUIRED            3 OUTER ITERATIONS 
       AND A TOTAL OF          5 INNER ITERATIONS.
    ------------------------------------------------

 NO OUTPUT CONTROL FOR STRESS PERIOD   16   TIME STEP   27
 
 SOLVING FOR HEAD 
                                                   Max.-Head-Change                         Max.-Flux-Residual
  Residual-Control   Outer-Iter.   Inner-Iter.     Column Row Layer    Maximum-Head-Change  Column Row Layer    Maximum-Flux-Residual          L2-NORM 
          0                 1           2             2    2     1       0.5870444981E-02       2    2    1         0.3066774287E+00      0.8704579770E+00
          0                 2           2             3    3     1      -0.3642157673E-03       3    3    1        -0.1969328222E-01      0.6627826504E-01
          0                 3           1             3    3     1       0.2484329915E-04       3    3    1         0.1378900840E-02      0.4692657857E-02

    ------------------------------------------------
       NWT REQUIRED            3 OUTER ITERATIONS 
       AND A TOTAL OF          5 INNER ITERATIONS.
    ------------------------------------------------

 NO OUTPUT CONTROL FOR STRESS PERIOD   16   TIME STEP   28
 
 SOLVING FOR HEAD 
                                                   Max.-Head-Change                         Max.-Flux-Residual
  Residual-Control   Outer-Iter.   Inner-Iter.     Column Row Layer    Maximum-Head-Change  Column Row Layer    Maximum-Flux-Residual          L2-NORM 
          0                 1           2             2    2     1       0.5831329066E-02       2    2    1         0.3046197449E+00      0.8594469349E+00
          0                 2           2             3    3     1      -0.3609515682E-03       3    3    1        -0.1951639315E-01      0.6596938991E-01
          0                 3           1             3    3     1       0.2462244748E-04       3    3    1         0.1366530713E-02      0.4673307038E-02

    ------------------------------------------------
       NWT REQUIRED            3 OUTER ITERATIONS 
       AND A TOTAL OF          5 INNER ITERATIONS.
    ------------------------------------------------

 NO OUTPUT CONTROL FOR STRESS PERIOD   16   TIME STEP   29
 
 SOLVING FOR HEAD 
                                                   Max.-Head-Change                         Max.-Flux-Residual
  Residual-Control   Outer-Iter.   Inner-Iter.     Column Row Layer    Maximum-Head-Change  Column Row Layer    Maximum-Flux-Residual          L2-NORM 
          0                 1           2             2    2     1       0.5694640713E-02       2    2    1         0.2974570635E+00      0.8271934755E+00
          0                 2           2             3    3     1      -0.3496252764E-03       3    3    1        -0.1890352270E-01      0.6519389496E-01
          0                 3           1             3    3     1       0.2385247691E-04       3    3    1         0.1323640759E-02      0.4623745644E-02

    ------------------------------------------------
       NWT REQUIRED            3 OUTER ITERATIONS 
       AND A TOTAL OF          5 INNER ITERATIONS.
    ------------------------------------------------

 NO OUTPUT CONTROL FOR STRESS PERIOD   16   TIME STEP   30



 STREAM LISTING     PERIOD     16   STEP       30

 LAYER ROW COL. STREAM  RCH.  FLOW INTO     FLOW TO   FLOW OUT OF   OVRLND.     DIRECT     STREAM       STREAM     STREAM     STREAM   STREAMBED  STREAMBED
                SEG.NO.  NO.  STRM. RCH.    AQUIFER    STRM. RCH.    RUNOFF     PRECIP       ET          HEAD       DEPTH      WIDTH   CONDCTNC.   GRADIENT

   1    1    1     1     1    9.6320E+01  4.6757E-01   9.5852E+01  0.000E+00  0.000E+00  0.000E+00  1.09483E+03  1.786E+00  2.171E+01  9.770E-02  1.595E+00
   1    2    2     1     2    9.5852E+01  7.2549E-01   9.5127E+01  0.000E+00  0.000E+00  0.000E+00  1.08984E+03  1.784E+00  2.167E+01  1.517E-01  1.595E+00
   1    3    3     1     3    9.5127E+01  6.2007E-01   9.4507E+01  0.000E+00  0.000E+00  0.000E+00  1.08420E+03  1.781E+00  2.162E+01  1.297E-01  1.594E+00
   1    3    4     1     4    9.4507E+01  5.7210E-01   9.3934E+01  0.000E+00  0.000E+00  0.000E+00  1.07919E+03  1.779E+00  2.157E+01  1.197E-01  1.593E+00
   1    4    5     2     1    9.1934E+01  4.3945E-01   9.1495E+01  0.000E+00  0.000E+00  0.000E+00  1.07457E+03  2.634E+00  1.200E+01  7.800E-02  1.878E+00
   1    5    6     2     2    9.1495E+01  3.3764E-01   9.1157E+01  0.000E+00  0.000E+00  0.000E+00  1.06914E+03  2.627E+00  1.200E+01  6.000E-02  1.876E+00
   1    6    6     2     3    9.1157E+01  3.3729E-01   9.0820E+01  0.000E+00  0.000E+00  0.000E+00  1.06441E+03  2.621E+00  1.200E+01  6.000E-02  1.874E+00
   1    7    6     2     4    9.0820E+01  3.3694E-01   9.0483E+01  0.000E+00  0.000E+00  0.000E+00  1.05969E+03  2.616E+00  1.200E+01  6.000E-02  1.872E+00
   1    8    6     2     5    9.0483E+01  3.3659E-01   9.0147E+01  0.000E+00  0.000E+00  0.000E+00  1.05497E+03  2.610E+00  1.200E+01  6.000E-02  1.870E+00
   1    3    5     3     1    2.0000E+00  2.8252E-01   1.7175E+00  0.000E+00  0.000E+00  0.000E+00  1.07555E+03  1.909E+00  9.636E+00  7.227E-02  1.955E+00
   1    3    6     3     2    1.7175E+00  2.4905E-01   1.4684E+00  0.000E+00  0.000E+00  0.000E+00  1.07264E+03  1.727E+00  8.909E+00  6.682E-02  1.864E+00
   1    3    7     3     3    1.4684E+00  1.9718E-01   1.2712E+00  0.000E+00  0.000E+00  0.000E+00  1.06987E+03  1.555E+00  8.218E+00  5.547E-02  1.777E+00
   1    4    8     3     4    1.2712E+00  2.2567E-01   1.0456E+00  0.000E+00  0.000E+00  0.000E+00  1.06682E+03  1.364E+00  7.455E+00  6.709E-02  1.682E+00
   1    5    8     3     5    1.0456E+00  1.5790E-01   8.8768E-01  0.000E+00  0.000E+00  0.000E+00  1.06362E+03  1.164E+00  6.655E+00  4.991E-02  1.582E+00
   1    6    8     3     6    8.8768E-01  5.5980E-02   8.3170E-01  0.000E+00  0.000E+00  0.000E+00  1.06158E+03  1.036E+00  6.145E+00  1.844E-02  1.518E+00
   1    5   10     4     1    1.0000E+01  9.0919E-02   9.9091E+00  0.000E+00  0.000E+00  0.000E+00  1.07836E+03  6.368E-01  1.000E+01  2.500E-02  1.212E+00
   1    5    9     4     2    9.9091E+00  1.8158E-01   9.7275E+00  0.000E+00  0.000E+00  0.000E+00  1.07154E+03  6.315E-01  1.000E+01  5.000E-02  1.211E+00
   1    6    8     4     3    9.7275E+00  1.2689E-01   9.6006E+00  0.000E+00  0.000E+00  0.000E+00  1.06381E+03  6.256E-01  1.000E+01  3.500E-02  1.209E+00
   1    6    8     5     1    1.0432E+01  2.2686E-01   1.0205E+01  0.000E+00  0.000E+00  0.000E+00  1.05868E+03  6.790E-01  1.542E+01  6.166E-02  1.226E+00
   1    7    7     5     2    1.0205E+01  2.7894E-01   9.9265E+00  0.000E+00  0.000E+00  0.000E+00  1.05417E+03  6.732E-01  1.519E+01  7.594E-02  1.224E+00
   1    8    7     5     3    9.9265E+00  1.9221E-01   9.7343E+00  0.000E+00  0.000E+00  0.000E+00  1.04992E+03  6.676E-01  1.497E+01  5.241E-02  1.223E+00
   1    8    6     5     4    9.7343E+00  1.3577E-01   9.5985E+00  0.000E+00  0.000E+00  0.000E+00  1.04691E+03  6.637E-01  1.482E+01  3.706E-02  1.221E+00
   1    9    6     6     1    9.9745E+01  3.4788E-01   9.9397E+01  0.000E+00  0.000E+00  0.000E+00  1.04553E+03  2.798E+00  1.200E+01  6.000E-02  1.933E+00
   1   10    7     6     2    9.9397E+01  3.4753E-01   9.9050E+01  0.000E+00  0.000E+00  0.000E+00  1.04097E+03  2.792E+00  1.200E+01  6.000E-02  1.931E+00
   1   11    7     6     3    9.9050E+01  3.4718E-01   9.8702E+01  0.000E+00  0.000E+00  0.000E+00  1.03642E+03  2.786E+00  1.200E+01  6.000E-02  1.929E+00
   1   12    7     6     4    9.8702E+01  3.4682E-01   9.8356E+01  0.000E+00  0.000E+00  0.000E+00  1.03187E+03  2.780E+00  1.200E+01  6.000E-02  1.927E+00
   1   13    7     6     5    9.8356E+01  3.7299E-02   9.8318E+01  0.000E+00  0.000E+00  0.000E+00  1.02869E+03  2.777E+00  1.200E+01  2.400E-02  5.180E-01
   1   14    9     7     1    1.5000E+02  1.3335E+00   1.4867E+02  0.000E+00  0.000E+00  0.000E+00  1.03987E+03  2.288E+00  5.529E+01  5.593E-01  7.947E-01
   1   13    8     7     2    1.4867E+02  1.8225E+00   1.4684E+02  0.000E+00  0.000E+00  0.000E+00  1.03478E+03  2.279E+00  5.526E+01  6.148E-01  9.882E-01
   1   13    7     7     3    1.4684E+02  1.4285E+00   1.4542E+02  0.000E+00  0.000E+00  0.000E+00  1.02969E+03  2.271E+00  5.522E+01  5.585E-01  8.526E-01
   1   13    6     8     1    2.4373E+02  1.1793E+00   2.4255E+02  0.000E+00  0.000E+00  0.000E+00  1.02525E+03  3.376E+00  4.895E+01  4.989E-01  7.880E-01
   1   13    5     8     2    2.4255E+02  3.2242E-01   2.4223E+02  0.000E+00  0.000E+00  0.000E+00  1.01900E+03  3.372E+00  4.890E+01  4.983E-01  2.157E-01
   1   13    4     8     3    2.4223E+02 -2.1566E+00   2.4439E+02  0.000E+00  0.000E+00  0.000E+00  1.01275E+03  3.377E+00  4.897E+01  4.990E+00 -1.441E-01
   1   13    3     8     4    2.4439E+02 -3.4820E+00   2.4787E+02  0.000E+00  0.000E+00  0.000E+00  1.00652E+03  3.392E+00  4.918E+01  5.012E+00 -2.316E-01
   1   13    2     8     5    2.4787E+02 -2.4180E+00   2.5029E+02  0.000E+00  0.000E+00  0.000E+00  1.00028E+03  3.407E+00  4.940E+01  5.034E+00 -1.601E-01
   1   13    1     8     6    2.5029E+02 -1.7992E+00   2.5209E+02  0.000E+00  0.000E+00  0.000E+00  9.95293E+02  3.418E+00  4.956E+01  3.030E+00 -1.979E-01





UNSATURATED ZONE PACKAGE VOLUMETRIC BUDGET FOR  TIME STEP    30 STRESS PERIOD   16
  ------------------------------------------------------------------------------



     CUMULATIVE VOLUMES      L**3       RATES FOR THIS TIME STEP      L**3/T
     ------------------                 ------------------------

           IN:                                      IN:
           ---                                      ---
        INFILTRATION =   203254359.6343          INFILTRATION =           0.8475

          OUT:                                     OUT:
          ----                                     ----
              UZF ET =    95137677.2604                UZF ET =           0.4809
        UZF RECHARGE =     9560019.1655          UZF RECHARGE =           0.2623

            IN - OUT =    98556663.2084              IN - OUT =           0.1043

          STORAGE:                                 STORAGE:
          --------                                 --------
      STORAGE CHANGE =    98618973.3101        STORAGE CHANGE =           0.1043

 PERCENT DISCREPANCY IS DIFFERENCE BETWEEN IN-OUT MINUS CHANGE IN STORAGE
 DIVIDED BY THE AVERAGE OF IN AND OUT TIMES 100

 PERCENT DISCREPANCY =          -0.01     PERCENT DISCREPANCY =          -0.00






1
  VOLUMETRIC BUDGET FOR ENTIRE MODEL AT END OF TIME STEP   30, STRESS PERIOD  16
  ------------------------------------------------------------------------------

     CUMULATIVE VOLUMES      L**3       RATES FOR THIS TIME STEP      L**3/T
     ------------------                 ------------------------

           IN:                                      IN:
           ---                                      ---
               AWU WELLS =   169772608.0000                 AWU WELLS =           0.0000
      DIVERSION SEGMENTS =           0.0000        DIVERSION SEGMENTS =           0.0000
           GW IRRIGATION =           0.0000             GW IRRIGATION =           0.0000
           SW IRRIGATION =           0.0000             SW IRRIGATION =           0.0000
        SYSTEM LOSSES GW =           0.0000          SYSTEM LOSSES GW =           0.0000
        SYSTEM LOSSES SW =           0.0000          SYSTEM LOSSES SW =           0.0000

                TOTAL IN =   169772608.0000                  TOTAL IN =           0.0000

          OUT:                                     OUT:
          ----                                     ----
               AWU WELLS =           0.0000                 AWU WELLS =           0.0000
      DIVERSION SEGMENTS =           0.0000        DIVERSION SEGMENTS =           0.0000
           GW IRRIGATION =   169772608.0000             GW IRRIGATION =           0.0000
           SW IRRIGATION =           0.0000             SW IRRIGATION =           0.0000
        SYSTEM LOSSES GW =           0.0000          SYSTEM LOSSES GW =           0.0000
        SYSTEM LOSSES SW =           0.0000          SYSTEM LOSSES SW =           0.0000

               TOTAL OUT =   169772608.0000                 TOTAL OUT =           0.0000

                IN - OUT =           0.0000                  IN - OUT =           0.0000

     PERCENT DISCREPANCY =           0.00         PERCENT DISCREPANCY =           0.00



1
  VOLUMETRIC BUDGET FOR ENTIRE MODEL AT END OF TIME STEP   30, STRESS PERIOD  16
  ------------------------------------------------------------------------------

     CUMULATIVE VOLUMES      L**3       RATES FOR THIS TIME STEP      L**3/T
     ------------------                 ------------------------

           IN:                                      IN:
           ---                                      ---
             STORAGE     =   300046304.0000               STORAGE     =           0.9034
       CONSTANT HEAD     =           0.0000         CONSTANT HEAD     =           0.0000
     HEAD DEP BOUNDS     =    11285681.0000       HEAD DEP BOUNDS     =           0.2856
      STREAM LEAKAGE     =   498922368.0000        STREAM LEAKAGE     =          14.0875
        UZF RECHARGE     =     9560022.0000          UZF RECHARGE     =           0.2623
               GW ET     =           0.0000                 GW ET     =           0.0000
     SURFACE LEAKAGE     =           0.0000       SURFACE LEAKAGE     =           0.0000
           AWU WELLS     =           0.0000             AWU WELLS     =           0.0000

                TOTAL IN =   819814336.0000                  TOTAL IN =          15.5387

          OUT:                                     OUT:
          ----                                     ----
             STORAGE     =   206281936.0000               STORAGE     =           5.2824
       CONSTANT HEAD     =           0.0000         CONSTANT HEAD     =           0.0000
     HEAD DEP BOUNDS     =    11481704.0000       HEAD DEP BOUNDS     =           0.2997
      STREAM LEAKAGE     =   376798208.0000        STREAM LEAKAGE     =           9.8557
        UZF RECHARGE     =           0.0000          UZF RECHARGE     =           0.0000
               GW ET     =    55487092.0000                 GW ET     =           0.1014
     SURFACE LEAKAGE     =           0.0000       SURFACE LEAKAGE     =           0.0000
           AWU WELLS     =   169772608.0000             AWU WELLS     =           0.0000

               TOTAL OUT =   819821568.0000                 TOTAL OUT =          15.5391

                IN - OUT =       -7232.0000                  IN - OUT =      -4.1485E-04

     PERCENT DISCREPANCY =          -0.00         PERCENT DISCREPANCY =          -0.00






         TIME SUMMARY AT END OF TIME STEP   30 IN STRESS PERIOD   16
                    SECONDS     MINUTES      HOURS       DAYS        YEARS
                    -----------------------------------------------------------
   TIME STEP LENGTH  87600.      1460.0      24.333      1.0139     2.77588E-03
 STRESS PERIOD TIME 2.62800E+06  43800.      730.00      30.417     8.32763E-02
         TOTAL TIME 3.95064E+07 6.58440E+05  10974.      457.25      1.2519    
1
1
                            STRESS PERIOD NO.   17, LENGTH =   2628000.    
                            -----------------------------------------------

                              NUMBER OF TIME STEPS =    30

                               MULTIPLIER FOR DELT =     1.000

                            INITIAL TIME STEP SIZE =   87600.00    

 REUSING NON-PARAMETER GHB CELLS FROM LAST STRESS PERIOD

      2 GHB CELLS

 REUSING STREAM SEGMENT DATA FROM LAST STRESS PERIOD



            AREAL INFILTRATION RATE
 READING ON UNIT   19 WITH FORMAT: (10F4.0)            

            1           2           3           4           5           6           7           8           9          10
 ........................................................................................................................
   1   1.0000E-10  2.0000E-10   0.000       0.000       0.000       0.000       0.000       0.000       0.000       0.000    
   2   2.0000E-10  1.0000E-10  2.0000E-10   0.000       0.000      8.0000E-10  8.0000E-10  5.0000E-10   0.000       0.000    
   3    0.000      5.0000E-10  1.0000E-10  1.0000E-10  8.0000E-10  8.0000E-10  5.0000E-10  5.0000E-10   0.000       0.000    
   4   8.0000E-10  5.0000E-10  1.0000E-10  1.0000E-10  1.0000E-10  1.0000E-10  1.0000E-10  1.0000E-10  2.0000E-10   0.000    
   5   8.0000E-10  5.0000E-10  1.0000E-10  1.0000E-10  1.0000E-10  1.0000E-10  1.0000E-10  1.0000E-10  1.0000E-10  1.0000E-10
   6   8.0000E-10  5.0000E-10  5.0000E-10  2.0000E-10  2.0000E-10  1.0000E-10  1.0000E-10  1.0000E-10  1.0000E-10  5.0000E-10
   7   8.0000E-10  5.0000E-10  5.0000E-10  2.0000E-10  2.0000E-10  1.0000E-10  1.0000E-10  2.0000E-10  2.0000E-10   0.000    
   8    0.000      5.0000E-10  5.0000E-10  2.0000E-10  2.0000E-10  1.0000E-10  1.0000E-10  2.0000E-10  5.0000E-10   0.000    
   9    0.000      5.0000E-10  5.0000E-10  2.0000E-10  2.0000E-10  1.0000E-10  1.0000E-10  2.0000E-10  5.0000E-10   0.000    
  10    0.000      5.0000E-10  5.0000E-10  2.0000E-10  2.0000E-10  1.0000E-10  1.0000E-10  2.0000E-10  5.0000E-10  8.0000E-10
  11    0.000      1.0000E-10  1.0000E-10  1.0000E-10  1.0000E-10  1.0000E-10  1.0000E-10  2.0000E-10  5.0000E-10   0.000    
  12   1.0000E-10  1.0000E-10  1.0000E-10  1.0000E-10  1.0000E-10  1.0000E-10  1.0000E-10  1.0000E-10  2.0000E-10   0.000    
  13   1.0000E-10  1.0000E-10  2.0000E-10  2.0000E-10  2.0000E-10  2.0000E-10  2.0000E-10  1.0000E-10  1.0000E-10   0.000    
  14    0.000      2.0000E-10  5.0000E-10  5.0000E-10  5.0000E-10  5.0000E-10  5.0000E-10  2.0000E-10  1.0000E-10   0.000    
  15    0.000       0.000      8.0000E-10  8.0000E-10  8.0000E-10  8.0000E-10   0.000       0.000       0.000       0.000    

                  ET RATE =  5.000000E-09

 USING ET EXTINCTION DEPTH FROM PREVIOUS STRESS PERIOD. CURRENT PERIOD IS:      17

 USING EXTINCTION WATER CONTENT FROM PREVIOUS STRESS PERIOD. CURRENT PERIOD IS:      17

 PROCESSING AWU STRESS PERIOD DATA

 READING AWU STRESS PERIOD DATA

 READING IRRIGATION WELL

 END PROCESSING AWU STRESS PERIOD DATA OPTIONS
 
 SOLVING FOR HEAD 
                                                   Max.-Head-Change                         Max.-Flux-Residual
  Residual-Control   Outer-Iter.   Inner-Iter.     Column Row Layer    Maximum-Head-Change  Column Row Layer    Maximum-Flux-Residual          L2-NORM 
          0                 1           2             4   13     1      -0.8647753343E-02       4   13    1        -0.5020162192E+00      0.1054092332E+01
          0                 2           2             4   13     1       0.7613968403E-03       4   13    1         0.4543849172E-01      0.9272943430E-01
          0                 3           1             4   13     1      -0.5114088774E-04       4   13    1        -0.3140104789E-02      0.6388762081E-02

    ------------------------------------------------
       NWT REQUIRED            3 OUTER ITERATIONS 
       AND A TOTAL OF          5 INNER ITERATIONS.
    ------------------------------------------------

 NO OUTPUT CONTROL FOR STRESS PERIOD   17   TIME STEP    1
 
 SOLVING FOR HEAD 
                                                   Max.-Head-Change                         Max.-Flux-Residual
  Residual-Control   Outer-Iter.   Inner-Iter.     Column Row Layer    Maximum-Head-Change  Column Row Layer    Maximum-Flux-Residual          L2-NORM 
          0                 1           2             4   13     1      -0.7815774574E-02       4   13    1        -0.4536212036E+00      0.1001851039E+01
          0                 2           2             4   13     1       0.7536814765E-03       4   13    1         0.4495640683E-01      0.9246821073E-01
          0                 3           1             4   13     1      -0.5061839398E-04       4   13    1        -0.3106467458E-02      0.6368725978E-02

    ------------------------------------------------
       NWT REQUIRED            3 OUTER ITERATIONS 
       AND A TOTAL OF          5 INNER ITERATIONS.
    ------------------------------------------------

 NO OUTPUT CONTROL FOR STRESS PERIOD   17   TIME STEP    2
 
 SOLVING FOR HEAD 
                                                   Max.-Head-Change                         Max.-Flux-Residual
  Residual-Control   Outer-Iter.   Inner-Iter.     Column Row Layer    Maximum-Head-Change  Column Row Layer    Maximum-Flux-Residual          L2-NORM 
          0                 1           2             4   13     1      -0.7004676347E-02       4   13    1        -0.4064763425E+00      0.9519691801E+00
          0                 2           2             4   13     1       0.6754296052E-03       4   13    1         0.4028482641E-01      0.8735355495E-01
          0                 3           1             4   13     1      -0.4536704495E-04       4   13    1        -0.2784037234E-02      0.6030360631E-02

    ------------------------------------------------
       NWT REQUIRED            3 OUTER ITERATIONS 
       AND A TOTAL OF          5 INNER ITERATIONS.
    ------------------------------------------------

 NO OUTPUT CONTROL FOR STRESS PERIOD   17   TIME STEP    3
 
 SOLVING FOR HEAD 
                                                   Max.-Head-Change                         Max.-Flux-Residual
  Residual-Control   Outer-Iter.   Inner-Iter.     Column Row Layer    Maximum-Head-Change  Column Row Layer    Maximum-Flux-Residual          L2-NORM 
          0                 1           2             4   13     1      -0.6278689433E-02       4   13    1        -0.3642893347E+00      0.9090661937E+00
          0                 2           2             4   13     1       0.6053633498E-03       4   13    1         0.3610263518E-01      0.8292906617E-01
          0                 3           1             4   13     1      -0.4067128086E-04       4   13    1        -0.2495792109E-02      0.5736563741E-02

    ------------------------------------------------
       NWT REQUIRED            3 OUTER ITERATIONS 
       AND A TOTAL OF          5 INNER ITERATIONS.
    ------------------------------------------------

 NO OUTPUT CONTROL FOR STRESS PERIOD   17   TIME STEP    4
 
 SOLVING FOR HEAD 
                                                   Max.-Head-Change                         Max.-Flux-Residual
  Residual-Control   Outer-Iter.   Inner-Iter.     Column Row Layer    Maximum-Head-Change  Column Row Layer    Maximum-Flux-Residual          L2-NORM 
          0                 1           2             4   13     1      -0.5628886987E-02       4   13    1        -0.3265392205E+00      0.8718994598E+00
          0                 2           2             4   13     1       0.5426652142E-03       4   13    1         0.3236083445E-01      0.7908057828E-01
          0                 3           1             4   13     1      -0.3643381870E-04       4   13    1        -0.2235682580E-02      0.5482351207E-02

    ------------------------------------------------
       NWT REQUIRED            3 OUTER ITERATIONS 
       AND A TOTAL OF          5 INNER ITERATIONS.
    ------------------------------------------------

 NO OUTPUT CONTROL FOR STRESS PERIOD   17   TIME STEP    5
 
 SOLVING FOR HEAD 
                                                   Max.-Head-Change                         Max.-Flux-Residual
  Residual-Control   Outer-Iter.   Inner-Iter.     Column Row Layer    Maximum-Head-Change  Column Row Layer    Maximum-Flux-Residual          L2-NORM 
          0                 1           2             4   13     1      -0.5047014517E-02       4   13    1        -0.2927444498E+00      0.8392127512E+00
          0                 2           2             4   13     1       0.4865557071E-03       4   13    1         0.2901284341E-01      0.7568013224E-01
          0                 3           1             4   13     1      -0.3267863430E-04       4   13    1        -0.2005248593E-02      0.5257753853E-02

    ------------------------------------------------
       NWT REQUIRED            3 OUTER ITERATIONS 
       AND A TOTAL OF          5 INNER ITERATIONS.
    ------------------------------------------------

 NO OUTPUT CONTROL FOR STRESS PERIOD   17   TIME STEP    6
 
 SOLVING FOR HEAD 
                                                   Max.-Head-Change                         Max.-Flux-Residual
  Residual-Control   Outer-Iter.   Inner-Iter.     Column Row Layer    Maximum-Head-Change  Column Row Layer    Maximum-Flux-Residual          L2-NORM 
          0                 1           2             1    1     1       0.4529220584E-02       4   13    1        -0.2624797031E+00      0.8105432800E+00
          0                 2           2             4   13     1       0.4362438364E-03       4   13    1         0.2601127000E-01      0.7268319198E-01
          0                 3           1             4   13     1      -0.2928664090E-04       4   13    1        -0.1797114352E-02      0.5060451724E-02

    ------------------------------------------------
       NWT REQUIRED            3 OUTER ITERATIONS 
       AND A TOTAL OF          5 INNER ITERATIONS.
    ------------------------------------------------

 NO OUTPUT CONTROL FOR STRESS PERIOD   17   TIME STEP    7
 
 SOLVING FOR HEAD 
                                                   Max.-Head-Change                         Max.-Flux-Residual
  Residual-Control   Outer-Iter.   Inner-Iter.     Column Row Layer    Maximum-Head-Change  Column Row Layer    Maximum-Flux-Residual          L2-NORM 
          0                 1           2             1    1     1       0.4524145285E-02       4   13    1        -0.2353775261E+00      0.7856938724E+00
          0                 2           2             4   13     1       0.3912338818E-03       4   13    1         0.2332645281E-01      0.7007615708E-01
          0                 3           1             4   13     1      -0.2626171153E-04       4   13    1        -0.1611535798E-02      0.4888673521E-02

    ------------------------------------------------
       NWT REQUIRED            3 OUTER ITERATIONS 
       AND A TOTAL OF          5 INNER ITERATIONS.
    ------------------------------------------------

 NO OUTPUT CONTROL FOR STRESS PERIOD   17   TIME STEP    8
 
 SOLVING FOR HEAD 
                                                   Max.-Head-Change                         Max.-Flux-Residual
  Residual-Control   Outer-Iter.   Inner-Iter.     Column Row Layer    Maximum-Head-Change  Column Row Layer    Maximum-Flux-Residual          L2-NORM 
          0                 1           2             1    1     1       0.4519066988E-02       1    1    1         0.2347700595E+00      0.7641529750E+00
          0                 2           2             3   13     1       0.3514895221E-03       4   13    1         0.2091963891E-01      0.6780801552E-01
          0                 3           1             4   13     1      -0.2355437746E-04       4   13    1        -0.1445474803E-02      0.4740810128E-02

    ------------------------------------------------
       NWT REQUIRED            3 OUTER ITERATIONS 
       AND A TOTAL OF          5 INNER ITERATIONS.
    ------------------------------------------------

 NO OUTPUT CONTROL FOR STRESS PERIOD   17   TIME STEP    9
 
 SOLVING FOR HEAD 
                                                   Max.-Head-Change                         Max.-Flux-Residual
  Residual-Control   Outer-Iter.   Inner-Iter.     Column Row Layer    Maximum-Head-Change  Column Row Layer    Maximum-Flux-Residual          L2-NORM 
          0                 1           2             1    1     1       0.4514008854E-02       1    1    1         0.2345066756E+00      0.7454879784E+00
          0                 2           2             3   13     1       0.3197163557E-03       3   13    1         0.1880918526E-01      0.6583636304E-01
          0                 3           1             1    2     1       0.2228836950E-04       4   13    1        -0.1296874743E-02      0.4611204151E-02

    ------------------------------------------------
       NWT REQUIRED            3 OUTER ITERATIONS 
       AND A TOTAL OF          5 INNER ITERATIONS.
    ------------------------------------------------

 NO OUTPUT CONTROL FOR STRESS PERIOD   17   TIME STEP   10
 
 SOLVING FOR HEAD 
                                                   Max.-Head-Change                         Max.-Flux-Residual
  Residual-Control   Outer-Iter.   Inner-Iter.     Column Row Layer    Maximum-Head-Change  Column Row Layer    Maximum-Flux-Residual          L2-NORM 
          0                 1           2             1    1     1       0.4508993977E-02       1    1    1         0.2342455448E+00      0.7292989702E+00
          0                 2           2             4    7     1      -0.3131465005E-03       3   13    1         0.1710711405E-01      0.6412137829E-01
          0                 3           1             1    2     1       0.2235446710E-04       4    7    1         0.1178283268E-02      0.4498833794E-02

    ------------------------------------------------
       NWT REQUIRED            3 OUTER ITERATIONS 
       AND A TOTAL OF          5 INNER ITERATIONS.
    ------------------------------------------------

 NO OUTPUT CONTROL FOR STRESS PERIOD   17   TIME STEP   11
 
 SOLVING FOR HEAD 
                                                   Max.-Head-Change                         Max.-Flux-Residual
  Residual-Control   Outer-Iter.   Inner-Iter.     Column Row Layer    Maximum-Head-Change  Column Row Layer    Maximum-Flux-Residual          L2-NORM 
          0                 1           2             1    1     1       0.4503975754E-02       1    1    1         0.2339842427E+00      0.7152109592E+00
          0                 2           2             4    7     1      -0.3114259964E-03       4    7    1        -0.1673986423E-01      0.6262448263E-01
          0                 3           1             1    2     1       0.2242071476E-04       4    7    1         0.1171790904E-02      0.4400456516E-02

    ------------------------------------------------
       NWT REQUIRED            3 OUTER ITERATIONS 
       AND A TOTAL OF          5 INNER ITERATIONS.
    ------------------------------------------------

 NO OUTPUT CONTROL FOR STRESS PERIOD   17   TIME STEP   12
 
 SOLVING FOR HEAD 
                                                   Max.-Head-Change                         Max.-Flux-Residual
  Residual-Control   Outer-Iter.   Inner-Iter.     Column Row Layer    Maximum-Head-Change  Column Row Layer    Maximum-Flux-Residual          L2-NORM 
          0                 1           2             1    1     1       0.4498977329E-02       1    1    1         0.2337239741E+00      0.7029335808E+00
          0                 2           2             4    7     1      -0.3097229785E-03       4    7    1        -0.1664808689E-01      0.6131952037E-01
          0                 3           1             1    2     1       0.2248586519E-04       4    7    1         0.1165366491E-02      0.4315433011E-02

    ------------------------------------------------
       NWT REQUIRED            3 OUTER ITERATIONS 
       AND A TOTAL OF          5 INNER ITERATIONS.
    ------------------------------------------------

 NO OUTPUT CONTROL FOR STRESS PERIOD   17   TIME STEP   13
 
 SOLVING FOR HEAD 
                                                   Max.-Head-Change                         Max.-Flux-Residual
  Residual-Control   Outer-Iter.   Inner-Iter.     Column Row Layer    Maximum-Head-Change  Column Row Layer    Maximum-Flux-Residual          L2-NORM 
          0                 1           2             1    1     1       0.4494021834E-02       1    1    1         0.2334659396E+00      0.6922198858E+00
          0                 2           2             4    7     1      -0.3080370964E-03       4    7    1        -0.1655724229E-01      0.6017917602E-01
          0                 3           1             1    2     1       0.2255117643E-04       4    7    1         0.1159007363E-02      0.4240616258E-02

    ------------------------------------------------
       NWT REQUIRED            3 OUTER ITERATIONS 
       AND A TOTAL OF          5 INNER ITERATIONS.
    ------------------------------------------------

 NO OUTPUT CONTROL FOR STRESS PERIOD   17   TIME STEP   14
 
 SOLVING FOR HEAD 
                                                   Max.-Head-Change                         Max.-Flux-Residual
  Residual-Control   Outer-Iter.   Inner-Iter.     Column Row Layer    Maximum-Head-Change  Column Row Layer    Maximum-Flux-Residual          L2-NORM 
          0                 1           2             1    1     1       0.4489062651E-02       1    1    1         0.2332077164E+00      0.6828372875E+00
          0                 2           2             4    7     1      -0.3063417341E-03       4    7    1        -0.1646583073E-01      0.5917969318E-01
          0                 3           1             1    2     1       0.2261540045E-04       4    7    1         0.1152608563E-02      0.4175656574E-02

    ------------------------------------------------
       NWT REQUIRED            3 OUTER ITERATIONS 
       AND A TOTAL OF          5 INNER ITERATIONS.
    ------------------------------------------------

 NO OUTPUT CONTROL FOR STRESS PERIOD   17   TIME STEP   15
 
 SOLVING FOR HEAD 
                                                   Max.-Head-Change                         Max.-Flux-Residual
  Residual-Control   Outer-Iter.   Inner-Iter.     Column Row Layer    Maximum-Head-Change  Column Row Layer    Maximum-Flux-Residual          L2-NORM 
          0                 1           2             1    1     1       0.4484122937E-02       1    1    1         0.2329505092E+00      0.6746075894E+00
          0                 2           2             4    7     1      -0.3046907773E-03       4    7    1        -0.1637687561E-01      0.5830375761E-01
          0                 3           1             1    2     1       0.2267979104E-04       4    7    1         0.1146381695E-02      0.4117875509E-02

    ------------------------------------------------
       NWT REQUIRED            3 OUTER ITERATIONS 
       AND A TOTAL OF          5 INNER ITERATIONS.
    ------------------------------------------------

 NO OUTPUT CONTROL FOR STRESS PERIOD   17   TIME STEP   16
 
 SOLVING FOR HEAD 
                                                   Max.-Head-Change                         Max.-Flux-Residual
  Residual-Control   Outer-Iter.   Inner-Iter.     Column Row Layer    Maximum-Head-Change  Column Row Layer    Maximum-Flux-Residual          L2-NORM 
          0                 1           2             1    1     1       0.4479202583E-02       1    1    1         0.2326943116E+00      0.6673463257E+00
          0                 2           2             4    7     1      -0.3030301275E-03       4    7    1        -0.1628732707E-01      0.5746753348E-01
          0                 3           1             1    2     1       0.2274372892E-04       4    7    1         0.1140113298E-02      0.4055510097E-02

    ------------------------------------------------
       NWT REQUIRED            3 OUTER ITERATIONS 
       AND A TOTAL OF          5 INNER ITERATIONS.
    ------------------------------------------------

 NO OUTPUT CONTROL FOR STRESS PERIOD   17   TIME STEP   17
 
 SOLVING FOR HEAD 
                                                   Max.-Head-Change                         Max.-Flux-Residual
  Residual-Control   Outer-Iter.   Inner-Iter.     Column Row Layer    Maximum-Head-Change  Column Row Layer    Maximum-Flux-Residual          L2-NORM 
          0                 1           2             4    7     1      -0.1005620295E+00       5    8    1        -0.5287921692E+01      0.1293526354E+02
          0                 2           2             4    7     1      -0.7755595781E-01       4    6    1        -0.4055151775E+01      0.9928491016E+01
          0                 3           2             4    7     1       0.7524715868E-02       4    6    1         0.4055492906E+00      0.9923822038E+00
          0                 4           2             4    7     1      -0.5124055966E-03       4    6    1        -0.2839092446E-01      0.6947519380E-01
          0                 5           1             4    7     1       0.2038909664E-04       4    6    1         0.1161287337E-02      0.2841973833E-02

    ------------------------------------------------
       NWT REQUIRED            5 OUTER ITERATIONS 
       AND A TOTAL OF          9 INNER ITERATIONS.
    ------------------------------------------------

 NO OUTPUT CONTROL FOR STRESS PERIOD   17   TIME STEP   18
 
 SOLVING FOR HEAD 
                                                   Max.-Head-Change                         Max.-Flux-Residual
  Residual-Control   Outer-Iter.   Inner-Iter.     Column Row Layer    Maximum-Head-Change  Column Row Layer    Maximum-Flux-Residual          L2-NORM 
          0                 1           2             5    8     1       0.7763269134E-02       5    8    1         0.4208401592E+00      0.9647373364E+00
          0                 2           2             4    7     1      -0.5782213733E-01       5    8    1        -0.3126302952E+01      0.7636038734E+01
          0                 3           2             4    7     1      -0.5329439968E-01       4    7    1        -0.2862859459E+01      0.7010590633E+01
          0                 4           2             4    7     1      -0.3714727733E-01       4    8    1        -0.1995907558E+01      0.4888095423E+01
          0                 5           2             4    7     1      -0.1550980400E-01       5    8    1        -0.8331393616E+00      0.2040733551E+01
          0                 6           2             4    7     1      -0.6040202639E-02       5    8    1        -0.3244604210E+00      0.7947530775E+00
          0                 7           2             4    7     1      -0.2301818281E-02       5    8    1        -0.1236449966E+00      0.3028634212E+00
          0                 8           2             4    7     1      -0.8717359161E-03       5    8    1        -0.4682592871E-01      0.1146982497E+00
          0                 9           2             4    7     1      -0.3292994235E-03       5    8    1        -0.1768839129E-01      0.4332701123E-01
          0                10           2             4    7     1      -0.1245046812E-03       5    8    1        -0.6687733442E-02      0.1638133798E-01
          0                11           1             4    7     1      -0.4688356476E-04       5    8    1        -0.2518313999E-02      0.6168510085E-02

    ------------------------------------------------
       NWT REQUIRED           11 OUTER ITERATIONS 
       AND A TOTAL OF         21 INNER ITERATIONS.
    ------------------------------------------------

 NO OUTPUT CONTROL FOR STRESS PERIOD   17   TIME STEP   19
 
 SOLVING FOR HEAD 
                                                   Max.-Head-Change                         Max.-Flux-Residual
  Residual-Control   Outer-Iter.   Inner-Iter.     Column Row Layer    Maximum-Head-Change  Column Row Layer    Maximum-Flux-Residual          L2-NORM 
          0                 1           2             5    8     1       0.1268843125E-01       5    8    1         0.6921108449E+00      0.1456124447E+01
          0                 2           2             5    8     1      -0.1234245910E-02       5    8    1        -0.6921161374E-01      0.1416355395E+00
          0                 3           1             5    8     1       0.8404749675E-04       5    8    1         0.4844810053E-02      0.9933380105E-02

    ------------------------------------------------
       NWT REQUIRED            3 OUTER ITERATIONS 
       AND A TOTAL OF          5 INNER ITERATIONS.
    ------------------------------------------------

 NO OUTPUT CONTROL FOR STRESS PERIOD   17   TIME STEP   20
 
 SOLVING FOR HEAD 
                                                   Max.-Head-Change                         Max.-Flux-Residual
  Residual-Control   Outer-Iter.   Inner-Iter.     Column Row Layer    Maximum-Head-Change  Column Row Layer    Maximum-Flux-Residual          L2-NORM 
          0                 1           2             5    8     1       0.1211122862E-01       5    8    1         0.6598798022E+00      0.1403667089E+01
          0                 2           2             5    8     1      -0.1178099065E-02       5    8    1        -0.6598845540E-01      0.1362617716E+00
          0                 3           1             5    8     1       0.8022411223E-04       5    8    1         0.4619189388E-02      0.9558189584E-02

    ------------------------------------------------
       NWT REQUIRED            3 OUTER ITERATIONS 
       AND A TOTAL OF          5 INNER ITERATIONS.
    ------------------------------------------------

 NO OUTPUT CONTROL FOR STRESS PERIOD   17   TIME STEP   21
 
 SOLVING FOR HEAD 
                                                   Max.-Head-Change                         Max.-Flux-Residual
  Residual-Control   Outer-Iter.   Inner-Iter.     Column Row Layer    Maximum-Head-Change  Column Row Layer    Maximum-Flux-Residual          L2-NORM 
          0                 1           2             5    8     1       0.1157306188E-01       5    8    1         0.6298511021E+00      0.1355241565E+01
          0                 2           2             5    8     1      -0.1125749436E-02       5    8    1        -0.6298553747E-01      0.1312921405E+00
          0                 3           1             5    8     1       0.7665930320E-04       5    8    1         0.4408985468E-02      0.9211571539E-02

    ------------------------------------------------
       NWT REQUIRED            3 OUTER ITERATIONS 
       AND A TOTAL OF          5 INNER ITERATIONS.
    ------------------------------------------------

 NO OUTPUT CONTROL FOR STRESS PERIOD   17   TIME STEP   22
 
 SOLVING FOR HEAD 
                                                   Max.-Head-Change                         Max.-Flux-Residual
  Residual-Control   Outer-Iter.   Inner-Iter.     Column Row Layer    Maximum-Head-Change  Column Row Layer    Maximum-Flux-Residual          L2-NORM 
          0                 1           2             5    8     1       0.1107110369E-01       5    8    1         0.6018636867E+00      0.1310527417E+01
          0                 2           2             5    8     1      -0.1076921987E-02       5    8    1        -0.6018675341E-01      0.1266950320E+00
          0                 3           1             5    8     1       0.7333434076E-04       5    8    1         0.4213070908E-02      0.8890989606E-02

    ------------------------------------------------
       NWT REQUIRED            3 OUTER ITERATIONS 
       AND A TOTAL OF          5 INNER ITERATIONS.
    ------------------------------------------------

 NO OUTPUT CONTROL FOR STRESS PERIOD   17   TIME STEP   23
 
 SOLVING FOR HEAD 
                                                   Max.-Head-Change                         Max.-Flux-Residual
  Residual-Control   Outer-Iter.   Inner-Iter.     Column Row Layer    Maximum-Head-Change  Column Row Layer    Maximum-Flux-Residual          L2-NORM 
          0                 1           2             5    8     1       0.1060277515E-01       5    8    1         0.5757708540E+00      0.1269197419E+01
          0                 2           2             5    8     1      -0.1031365854E-02       5    8    1        -0.5757743243E-01      0.1224375919E+00
          0                 3           1             5    8     1       0.7023214206E-04       5    8    1         0.4030418704E-02      0.8594080076E-02

    ------------------------------------------------
       NWT REQUIRED            3 OUTER ITERATIONS 
       AND A TOTAL OF          5 INNER ITERATIONS.
    ------------------------------------------------

 NO OUTPUT CONTROL FOR STRESS PERIOD   17   TIME STEP   24
 
 SOLVING FOR HEAD 
                                                   Max.-Head-Change                         Max.-Flux-Residual
  Residual-Control   Outer-Iter.   Inner-Iter.     Column Row Layer    Maximum-Head-Change  Column Row Layer    Maximum-Flux-Residual          L2-NORM 
          0                 1           2             5    8     1       0.1016515701E-01       5    8    1         0.5514071505E+00      0.1230951879E+01
          0                 2           2             5    8     1      -0.9887970652E-03       5    8    1        -0.5514102851E-01      0.1184904111E+00
          0                 3           1             5    8     1       0.6733337019E-04       5    8    1         0.3859870684E-02      0.8318742027E-02

    ------------------------------------------------
       NWT REQUIRED            3 OUTER ITERATIONS 
       AND A TOTAL OF          5 INNER ITERATIONS.
    ------------------------------------------------

 NO OUTPUT CONTROL FOR STRESS PERIOD   17   TIME STEP   25
 
 SOLVING FOR HEAD 
                                                   Max.-Head-Change                         Max.-Flux-Residual
  Residual-Control   Outer-Iter.   Inner-Iter.     Column Row Layer    Maximum-Head-Change  Column Row Layer    Maximum-Flux-Residual          L2-NORM 
          0                 1           2             5    8     1       0.9756132894E-02       5    8    1         0.5286527482E+00      0.1195528553E+01
          0                 2           2             5    8     1      -0.9490097475E-03       5    8    1        -0.5286555841E-01      0.1148273598E+00
          0                 3           1             5    8     1       0.6462400535E-04       5    8    1         0.3700587988E-02      0.8063527073E-02

    ------------------------------------------------
       NWT REQUIRED            3 OUTER ITERATIONS 
       AND A TOTAL OF          5 INNER ITERATIONS.
    ------------------------------------------------

 NO OUTPUT CONTROL FOR STRESS PERIOD   17   TIME STEP   26
 
 SOLVING FOR HEAD 
                                                   Max.-Head-Change                         Max.-Flux-Residual
  Residual-Control   Outer-Iter.   Inner-Iter.     Column Row Layer    Maximum-Head-Change  Column Row Layer    Maximum-Flux-Residual          L2-NORM 
          0                 1           2             5    8     1       0.9373207429E-02       5    8    1         0.5073661898E+00      0.1162686505E+01
          0                 2           2             5    8     1      -0.9117611620E-03       5    8    1        -0.5073687588E-01      0.1114246225E+00
          0                 3           1             5    8     1       0.6208751849E-04       5    8    1         0.3551580402E-02      0.7826326124E-02

    ------------------------------------------------
       NWT REQUIRED            3 OUTER ITERATIONS 
       AND A TOTAL OF          5 INNER ITERATIONS.
    ------------------------------------------------

 NO OUTPUT CONTROL FOR STRESS PERIOD   17   TIME STEP   27
 
 SOLVING FOR HEAD 
                                                   Max.-Head-Change                         Max.-Flux-Residual
  Residual-Control   Outer-Iter.   Inner-Iter.     Column Row Layer    Maximum-Head-Change  Column Row Layer    Maximum-Flux-Residual          L2-NORM 
          0                 1           2             5    8     1       0.9014944240E-02       5    8    1         0.4874654656E+00      0.1132203222E+01
          0                 2           2             5    8     1      -0.8769115853E-03       5    8    1        -0.4874677969E-01      0.1082602078E+00
          0                 3           1             5    8     1       0.5971439512E-04       5    8    1         0.3412273852E-02      0.7606008376E-02

    ------------------------------------------------
       NWT REQUIRED            3 OUTER ITERATIONS 
       AND A TOTAL OF          5 INNER ITERATIONS.
    ------------------------------------------------

 NO OUTPUT CONTROL FOR STRESS PERIOD   17   TIME STEP   28
 
 SOLVING FOR HEAD 
                                                   Max.-Head-Change                         Max.-Flux-Residual
  Residual-Control   Outer-Iter.   Inner-Iter.     Column Row Layer    Maximum-Head-Change  Column Row Layer    Maximum-Flux-Residual          L2-NORM 
          0                 1           2             5    8     1       0.8679176177E-02       5    8    1         0.4688285783E+00      0.1103888323E+01
          0                 2           2             5    8     1      -0.8442894728E-03       5    8    1        -0.4688306970E-01      0.1053810348E+00
          0                 3           1             5    8     1       0.5749295328E-04       5    8    1         0.3281814299E-02      0.7405144772E-02

    ------------------------------------------------
       NWT REQUIRED            3 OUTER ITERATIONS 
       AND A TOTAL OF          5 INNER ITERATIONS.
    ------------------------------------------------

 NO OUTPUT CONTROL FOR STRESS PERIOD   17   TIME STEP   29
 
 SOLVING FOR HEAD 
                                                   Max.-Head-Change                         Max.-Flux-Residual
  Residual-Control   Outer-Iter.   Inner-Iter.     Column Row Layer    Maximum-Head-Change  Column Row Layer    Maximum-Flux-Residual          L2-NORM 
          0                 1           2             5    6     1       0.8370361883E-02       5    8    1         0.4513726381E+00      0.1091034238E+01
          0                 2           2             5    6     1      -0.8142082986E-03       5    8    1        -0.4513745468E-01      0.1045689627E+00
          0                 3           1             5    6     1       0.5544447180E-04       5    8    1         0.3159621409E-02      0.7335897429E-02

    ------------------------------------------------
       NWT REQUIRED            3 OUTER ITERATIONS 
       AND A TOTAL OF          5 INNER ITERATIONS.
    ------------------------------------------------

 NO OUTPUT CONTROL FOR STRESS PERIOD   17   TIME STEP   30



 STREAM LISTING     PERIOD     17   STEP       30

 LAYER ROW COL. STREAM  RCH.  FLOW INTO     FLOW TO   FLOW OUT OF   OVRLND.     DIRECT     STREAM       STREAM     STREAM     STREAM   STREAMBED  STREAMBED
                SEG.NO.  NO.  STRM. RCH.    AQUIFER    STRM. RCH.    RUNOFF     PRECIP       ET          HEAD       DEPTH      WIDTH   CONDCTNC.   GRADIENT

   1    1    1     1     1    7.0288E+01  4.0691E-01   6.9881E+01  0.000E+00  0.000E+00  0.000E+00  1.09469E+03  1.646E+00  1.946E+01  8.759E-02  1.549E+00
   1    2    2     1     2    6.9881E+01  6.3029E-01   6.9250E+01  0.000E+00  0.000E+00  0.000E+00  1.08970E+03  1.640E+00  1.941E+01  1.358E-01  1.547E+00
   1    3    3     1     3    6.9250E+01  5.3766E-01   6.8713E+01  0.000E+00  0.000E+00  0.000E+00  1.08405E+03  1.633E+00  1.934E+01  1.160E-01  1.544E+00
   1    3    4     1     4    6.8713E+01  4.9521E-01   6.8218E+01  0.000E+00  0.000E+00  0.000E+00  1.07904E+03  1.627E+00  1.928E+01  1.070E-01  1.542E+00
   1    4    5     2     1    6.6218E+01  4.0267E-01   6.5815E+01  0.000E+00  0.000E+00  0.000E+00  1.07410E+03  2.162E+00  1.200E+01  7.800E-02  1.721E+00
   1    5    6     2     2    6.5815E+01  3.0932E-01   6.5506E+01  0.000E+00  0.000E+00  0.000E+00  1.06866E+03  2.155E+00  1.200E+01  6.000E-02  1.718E+00
   1    6    6     2     3    6.5506E+01  3.0896E-01   6.5197E+01  0.000E+00  0.000E+00  0.000E+00  1.06394E+03  2.149E+00  1.200E+01  6.000E-02  1.716E+00
   1    7    6     2     4    6.5197E+01  3.0859E-01   6.4888E+01  0.000E+00  0.000E+00  0.000E+00  1.05922E+03  2.143E+00  1.200E+01  6.000E-02  1.714E+00
   1    8    6     2     5    6.4888E+01  3.0823E-01   6.4580E+01  0.000E+00  0.000E+00  0.000E+00  1.05450E+03  2.137E+00  1.200E+01  6.000E-02  1.712E+00
   1    3    5     3     1    2.0000E+00  2.8252E-01   1.7175E+00  0.000E+00  0.000E+00  0.000E+00  1.07555E+03  1.909E+00  9.636E+00  7.227E-02  1.955E+00
   1    3    6     3     2    1.7175E+00  2.4905E-01   1.4684E+00  0.000E+00  0.000E+00  0.000E+00  1.07264E+03  1.727E+00  8.909E+00  6.682E-02  1.864E+00
   1    3    7     3     3    1.4684E+00  1.9718E-01   1.2712E+00  0.000E+00  0.000E+00  0.000E+00  1.06987E+03  1.555E+00  8.218E+00  5.547E-02  1.777E+00
   1    4    8     3     4    1.2712E+00  2.2567E-01   1.0456E+00  0.000E+00  0.000E+00  0.000E+00  1.06682E+03  1.364E+00  7.455E+00  6.709E-02  1.682E+00
   1    5    8     3     5    1.0456E+00  1.5790E-01   8.8768E-01  0.000E+00  0.000E+00  0.000E+00  1.06362E+03  1.164E+00  6.655E+00  4.991E-02  1.582E+00
   1    6    8     3     6    8.8768E-01  5.5980E-02   8.3170E-01  0.000E+00  0.000E+00  0.000E+00  1.06158E+03  1.036E+00  6.145E+00  1.844E-02  1.518E+00
   1    5   10     4     1    1.0000E+01  9.0919E-02   9.9091E+00  0.000E+00  0.000E+00  0.000E+00  1.07836E+03  6.368E-01  1.000E+01  2.500E-02  1.212E+00
   1    5    9     4     2    9.9091E+00  1.8158E-01   9.7275E+00  0.000E+00  0.000E+00  0.000E+00  1.07154E+03  6.315E-01  1.000E+01  5.000E-02  1.211E+00
   1    6    8     4     3    9.7275E+00  1.2689E-01   9.6006E+00  0.000E+00  0.000E+00  0.000E+00  1.06381E+03  6.256E-01  1.000E+01  3.500E-02  1.209E+00
   1    6    8     5     1    1.0432E+01  2.2686E-01   1.0205E+01  0.000E+00  0.000E+00  0.000E+00  1.05868E+03  6.790E-01  1.542E+01  6.166E-02  1.226E+00
   1    7    7     5     2    1.0205E+01  2.7894E-01   9.9265E+00  0.000E+00  0.000E+00  0.000E+00  1.05417E+03  6.732E-01  1.519E+01  7.594E-02  1.224E+00
   1    8    7     5     3    9.9265E+00  1.9221E-01   9.7343E+00  0.000E+00  0.000E+00  0.000E+00  1.04992E+03  6.676E-01  1.497E+01  5.241E-02  1.223E+00
   1    8    6     5     4    9.7343E+00  1.3577E-01   9.5985E+00  0.000E+00  0.000E+00  0.000E+00  1.04691E+03  6.637E-01  1.482E+01  3.706E-02  1.221E+00
   1    9    6     6     1    7.4178E+01  3.2052E-01   7.3858E+01  0.000E+00  0.000E+00  0.000E+00  1.04507E+03  2.342E+00  1.200E+01  6.000E-02  1.781E+00
   1   10    7     6     2    7.3858E+01  3.2015E-01   7.3538E+01  0.000E+00  0.000E+00  0.000E+00  1.04052E+03  2.336E+00  1.200E+01  6.000E-02  1.779E+00
   1   11    7     6     3    7.3538E+01  3.1979E-01   7.3218E+01  0.000E+00  0.000E+00  0.000E+00  1.03597E+03  2.330E+00  1.200E+01  6.000E-02  1.777E+00
   1   12    7     6     4    7.3218E+01  3.1942E-01   7.2898E+01  0.000E+00  0.000E+00  0.000E+00  1.03141E+03  2.324E+00  1.200E+01  6.000E-02  1.775E+00
   1   13    7     6     5    7.2898E+01  2.6084E-02   7.2872E+01  0.000E+00  0.000E+00  0.000E+00  1.02823E+03  2.320E+00  1.200E+01  2.400E-02  3.623E-01
   1   14    9     7     1    1.5000E+02  1.3335E+00   1.4867E+02  0.000E+00  0.000E+00  0.000E+00  1.03987E+03  2.288E+00  5.529E+01  5.593E-01  7.948E-01
   1   13    8     7     2    1.4867E+02  1.8206E+00   1.4685E+02  0.000E+00  0.000E+00  0.000E+00  1.03478E+03  2.279E+00  5.526E+01  6.148E-01  9.871E-01
   1   13    7     7     3    1.4685E+02  1.4226E+00   1.4542E+02  0.000E+00  0.000E+00  0.000E+00  1.02969E+03  2.271E+00  5.522E+01  5.585E-01  8.491E-01
   1   13    6     8     1    2.1830E+02  1.0629E+00   2.1723E+02  0.000E+00  0.000E+00  0.000E+00  1.02511E+03  3.239E+00  4.697E+01  4.787E-01  7.402E-01
   1   13    5     8     2    2.1723E+02  2.4592E-01   2.1699E+02  0.000E+00  0.000E+00  0.000E+00  1.01886E+03  3.236E+00  4.692E+01  4.781E-01  1.714E-01
   1   13    4     8     3    2.1699E+02 -2.3577E+00   2.1934E+02  0.000E+00  0.000E+00  0.000E+00  1.01262E+03  3.242E+00  4.700E+01  4.790E+00 -1.641E-01
   1   13    3     8     4    2.1934E+02 -3.6219E+00   2.2297E+02  0.000E+00  0.000E+00  0.000E+00  1.00638E+03  3.258E+00  4.725E+01  4.814E+00 -2.508E-01
   1   13    2     8     5    2.2297E+02 -2.5922E+00   2.2556E+02  0.000E+00  0.000E+00  0.000E+00  1.00015E+03  3.275E+00  4.749E+01  4.840E+00 -1.785E-01
   1   13    1     8     6    2.2556E+02 -1.9585E+00   2.2752E+02  0.000E+00  0.000E+00  0.000E+00  9.95163E+02  3.288E+00  4.767E+01  2.915E+00 -2.240E-01





UNSATURATED ZONE PACKAGE VOLUMETRIC BUDGET FOR  TIME STEP    30 STRESS PERIOD   17
  ------------------------------------------------------------------------------



     CUMULATIVE VOLUMES      L**3       RATES FOR THIS TIME STEP      L**3/T
     ------------------                 ------------------------

           IN:                                      IN:
           ---                                      ---
        INFILTRATION =   215967137.5093          INFILTRATION =           0.8475

          OUT:                                     OUT:
          ----                                     ----
              UZF ET =   100790849.4157                UZF ET =           2.1661
        UZF RECHARGE =     9984964.2346          UZF RECHARGE =           0.1521

            IN - OUT =   105191323.8590              IN - OUT =          -1.4707

          STORAGE:                                 STORAGE:
          --------                                 --------
      STORAGE CHANGE =   105259055.8233        STORAGE CHANGE =          -1.4707

 PERCENT DISCREPANCY IS DIFFERENCE BETWEEN IN-OUT MINUS CHANGE IN STORAGE
 DIVIDED BY THE AVERAGE OF IN AND OUT TIMES 100

 PERCENT DISCREPANCY =          -0.01     PERCENT DISCREPANCY =          -0.00






1
  VOLUMETRIC BUDGET FOR ENTIRE MODEL AT END OF TIME STEP   30, STRESS PERIOD  17
  ------------------------------------------------------------------------------

     CUMULATIVE VOLUMES      L**3       RATES FOR THIS TIME STEP      L**3/T
     ------------------                 ------------------------

           IN:                                      IN:
           ---                                      ---
               AWU WELLS =   180258160.0000                 AWU WELLS =           0.0000
      DIVERSION SEGMENTS =           0.0000        DIVERSION SEGMENTS =           0.0000
           GW IRRIGATION =           0.0000             GW IRRIGATION =           0.0000
           SW IRRIGATION =           0.0000             SW IRRIGATION =           0.0000
        SYSTEM LOSSES GW =           0.0000          SYSTEM LOSSES GW =           0.0000
        SYSTEM LOSSES SW =           0.0000          SYSTEM LOSSES SW =           0.0000

                TOTAL IN =   180258160.0000                  TOTAL IN =           0.0000

          OUT:                                     OUT:
          ----                                     ----
               AWU WELLS =           0.0000                 AWU WELLS =           0.0000
      DIVERSION SEGMENTS =           0.0000        DIVERSION SEGMENTS =           0.0000
           GW IRRIGATION =   180258160.0000             GW IRRIGATION =           0.0000
           SW IRRIGATION =           0.0000             SW IRRIGATION =           0.0000
        SYSTEM LOSSES GW =           0.0000          SYSTEM LOSSES GW =           0.0000
        SYSTEM LOSSES SW =           0.0000          SYSTEM LOSSES SW =           0.0000

               TOTAL OUT =   180258160.0000                 TOTAL OUT =           0.0000

                IN - OUT =           0.0000                  IN - OUT =           0.0000

     PERCENT DISCREPANCY =           0.00         PERCENT DISCREPANCY =           0.00



1
  VOLUMETRIC BUDGET FOR ENTIRE MODEL AT END OF TIME STEP   30, STRESS PERIOD  17
  ------------------------------------------------------------------------------

     CUMULATIVE VOLUMES      L**3       RATES FOR THIS TIME STEP      L**3/T
     ------------------                 ------------------------

           IN:                                      IN:
           ---                                      ---
             STORAGE     =   314498528.0000               STORAGE     =           1.5704
       CONSTANT HEAD     =           0.0000         CONSTANT HEAD     =           0.0000
     HEAD DEP BOUNDS     =    12036251.0000       HEAD DEP BOUNDS     =           0.2856
      STREAM LEAKAGE     =   534306176.0000        STREAM LEAKAGE     =          13.3009
        UZF RECHARGE     =     9984968.0000          UZF RECHARGE     =           0.1521
               GW ET     =           0.0000                 GW ET     =           0.0000
     SURFACE LEAKAGE     =           0.0000       SURFACE LEAKAGE     =           0.0000
           AWU WELLS     =           0.0000             AWU WELLS     =           0.0000

                TOTAL IN =   870825920.0000                  TOTAL IN =          15.3090

          OUT:                                     OUT:
          ----                                     ----
             STORAGE     =   216931488.0000               STORAGE     =           3.9725
       CONSTANT HEAD     =           0.0000         CONSTANT HEAD     =           0.0000
     HEAD DEP BOUNDS     =    12266097.0000       HEAD DEP BOUNDS     =           0.2977
      STREAM LEAKAGE     =   404549728.0000        STREAM LEAKAGE     =          10.5304
        UZF RECHARGE     =           0.0000          UZF RECHARGE     =           0.0000
               GW ET     =    56827844.0000                 GW ET     =           0.5086
     SURFACE LEAKAGE     =           0.0000       SURFACE LEAKAGE     =           0.0000
           AWU WELLS     =   180258160.0000             AWU WELLS     =           0.0000

               TOTAL OUT =   870833344.0000                 TOTAL OUT =          15.3092

                IN - OUT =       -7424.0000                  IN - OUT =      -1.8883E-04

     PERCENT DISCREPANCY =          -0.00         PERCENT DISCREPANCY =          -0.00






         TIME SUMMARY AT END OF TIME STEP   30 IN STRESS PERIOD   17
                    SECONDS     MINUTES      HOURS       DAYS        YEARS
                    -----------------------------------------------------------
   TIME STEP LENGTH  87600.      1460.0      24.333      1.0139     2.77588E-03
 STRESS PERIOD TIME 2.62800E+06  43800.      730.00      30.417     8.32763E-02
         TOTAL TIME 4.21344E+07 7.02240E+05  11704.      487.67      1.3352    
1
1
                            STRESS PERIOD NO.   18, LENGTH =   2628000.    
                            -----------------------------------------------

                              NUMBER OF TIME STEPS =    30

                               MULTIPLIER FOR DELT =     1.000

                            INITIAL TIME STEP SIZE =   87600.00    

 REUSING NON-PARAMETER GHB CELLS FROM LAST STRESS PERIOD

      2 GHB CELLS

 REUSING STREAM SEGMENT DATA FROM LAST STRESS PERIOD



            AREAL INFILTRATION RATE
 READING ON UNIT   19 WITH FORMAT: (10F4.0)            

            1           2           3           4           5           6           7           8           9          10
 ........................................................................................................................
   1   1.0000E-10  2.0000E-10   0.000       0.000       0.000       0.000       0.000       0.000       0.000       0.000    
   2   2.0000E-10  1.0000E-10  2.0000E-10   0.000       0.000      8.0000E-10  8.0000E-10  5.0000E-10   0.000       0.000    
   3    0.000      5.0000E-10  1.0000E-10  1.0000E-10  8.0000E-10  8.0000E-10  5.0000E-10  5.0000E-10   0.000       0.000    
   4   8.0000E-10  5.0000E-10  1.0000E-10  1.0000E-10  1.0000E-10  1.0000E-10  1.0000E-10  1.0000E-10  2.0000E-10   0.000    
   5   8.0000E-10  5.0000E-10  1.0000E-10  1.0000E-10  1.0000E-10  1.0000E-10  1.0000E-10  1.0000E-10  1.0000E-10  1.0000E-10
   6   8.0000E-10  5.0000E-10  5.0000E-10  2.0000E-10  2.0000E-10  1.0000E-10  1.0000E-10  1.0000E-10  1.0000E-10  5.0000E-10
   7   8.0000E-10  5.0000E-10  5.0000E-10  2.0000E-10  2.0000E-10  1.0000E-10  1.0000E-10  2.0000E-10  2.0000E-10   0.000    
   8    0.000      5.0000E-10  5.0000E-10  2.0000E-10  2.0000E-10  1.0000E-10  1.0000E-10  2.0000E-10  5.0000E-10   0.000    
   9    0.000      5.0000E-10  5.0000E-10  2.0000E-10  2.0000E-10  1.0000E-10  1.0000E-10  2.0000E-10  5.0000E-10   0.000    
  10    0.000      5.0000E-10  5.0000E-10  2.0000E-10  2.0000E-10  1.0000E-10  1.0000E-10  2.0000E-10  5.0000E-10  8.0000E-10
  11    0.000      1.0000E-10  1.0000E-10  1.0000E-10  1.0000E-10  1.0000E-10  1.0000E-10  2.0000E-10  5.0000E-10   0.000    
  12   1.0000E-10  1.0000E-10  1.0000E-10  1.0000E-10  1.0000E-10  1.0000E-10  1.0000E-10  1.0000E-10  2.0000E-10   0.000    
  13   1.0000E-10  1.0000E-10  2.0000E-10  2.0000E-10  2.0000E-10  2.0000E-10  2.0000E-10  1.0000E-10  1.0000E-10   0.000    
  14    0.000      2.0000E-10  5.0000E-10  5.0000E-10  5.0000E-10  5.0000E-10  5.0000E-10  2.0000E-10  1.0000E-10   0.000    
  15    0.000       0.000      8.0000E-10  8.0000E-10  8.0000E-10  8.0000E-10   0.000       0.000       0.000       0.000    

                  ET RATE =  1.000000E-08

 USING ET EXTINCTION DEPTH FROM PREVIOUS STRESS PERIOD. CURRENT PERIOD IS:      18

 USING EXTINCTION WATER CONTENT FROM PREVIOUS STRESS PERIOD. CURRENT PERIOD IS:      18

 PROCESSING AWU STRESS PERIOD DATA

 READING AWU STRESS PERIOD DATA

 READING IRRIGATION WELL

 END PROCESSING AWU STRESS PERIOD DATA OPTIONS
 
 SOLVING FOR HEAD 
                                                   Max.-Head-Change                         Max.-Flux-Residual
  Residual-Control   Outer-Iter.   Inner-Iter.     Column Row Layer    Maximum-Head-Change  Column Row Layer    Maximum-Flux-Residual          L2-NORM 
          0                 1           2             5    6     1       0.8080693487E-02       5    6    1         0.4353510508E+00      0.1234630401E+01
          0                 2           2             5    6     1      -0.7860314060E-03       5    6    1        -0.4353512489E-01      0.1191385825E+00
          0                 3           1             5    6     1       0.5352571757E-04       5    6    1         0.3047459870E-02      0.8266635004E-02

    ------------------------------------------------
       NWT REQUIRED            3 OUTER ITERATIONS 
       AND A TOTAL OF          5 INNER ITERATIONS.
    ------------------------------------------------

 NO OUTPUT CONTROL FOR STRESS PERIOD   18   TIME STEP    1
 
 SOLVING FOR HEAD 
                                                   Max.-Head-Change                         Max.-Flux-Residual
  Residual-Control   Outer-Iter.   Inner-Iter.     Column Row Layer    Maximum-Head-Change  Column Row Layer    Maximum-Flux-Residual          L2-NORM 
          0                 1           2             5    6     1       0.7808275111E-02       5    6    1         0.4203041958E+00      0.1185911391E+01
          0                 2           2             5    6     1      -0.7595325195E-03       5    6    1        -0.4203043884E-01      0.1145609059E+00
          0                 3           1             5    6     1       0.5172124457E-04       5    6    1         0.2942131794E-02      0.7957966786E-02

    ------------------------------------------------
       NWT REQUIRED            3 OUTER ITERATIONS 
       AND A TOTAL OF          5 INNER ITERATIONS.
    ------------------------------------------------

 NO OUTPUT CONTROL FOR STRESS PERIOD   18   TIME STEP    2
 
 SOLVING FOR HEAD 
                                                   Max.-Head-Change                         Max.-Flux-Residual
  Residual-Control   Outer-Iter.   Inner-Iter.     Column Row Layer    Maximum-Head-Change  Column Row Layer    Maximum-Flux-Residual          L2-NORM 
          0                 1           2             5    6     1       0.7551292471E-02       5    6    1         0.4061192663E+00      0.1141724118E+01
          0                 2           2             5    6     1      -0.7345351094E-03       5    6    1        -0.4061194535E-01      0.1101462568E+00
          0                 3           1             5    6     1       0.5001901679E-04       5    6    1         0.2842837221E-02      0.7660234765E-02

    ------------------------------------------------
       NWT REQUIRED            3 OUTER ITERATIONS 
       AND A TOTAL OF          5 INNER ITERATIONS.
    ------------------------------------------------

 NO OUTPUT CONTROL FOR STRESS PERIOD   18   TIME STEP    3
 
 SOLVING FOR HEAD 
                                                   Max.-Head-Change                         Max.-Flux-Residual
  Residual-Control   Outer-Iter.   Inner-Iter.     Column Row Layer    Maximum-Head-Change  Column Row Layer    Maximum-Flux-Residual          L2-NORM 
          0                 1           2             5    6     1       0.7308964139E-02       5    6    1         0.3927518439E+00      0.1104652296E+01
          0                 2           2             5    6     1      -0.7109631638E-03       5    6    1        -0.3927520258E-01      0.1062927696E+00
          0                 3           1             5    6     1       0.4841385796E-04       5    6    1         0.2749265209E-02      0.7399184064E-02

    ------------------------------------------------
       NWT REQUIRED            3 OUTER ITERATIONS 
       AND A TOTAL OF          5 INNER ITERATIONS.
    ------------------------------------------------

 NO OUTPUT CONTROL FOR STRESS PERIOD   18   TIME STEP    4
 
 SOLVING FOR HEAD 
                                                   Max.-Head-Change                         Max.-Flux-Residual
  Residual-Control   Outer-Iter.   Inner-Iter.     Column Row Layer    Maximum-Head-Change  Column Row Layer    Maximum-Flux-Residual          L2-NORM 
          0                 1           2             5    6     1       0.7080262130E-02       5    6    1         0.3801447976E+00      0.1070007945E+01
          0                 2           2             5    6     1      -0.6887166874E-03       5    6    1        -0.3801449742E-01      0.1027885220E+00
          0                 3           1             5    6     1       0.4689895826E-04       5    6    1         0.2661015799E-02      0.7159314868E-02

    ------------------------------------------------
       NWT REQUIRED            3 OUTER ITERATIONS 
       AND A TOTAL OF          5 INNER ITERATIONS.
    ------------------------------------------------

 NO OUTPUT CONTROL FOR STRESS PERIOD   18   TIME STEP    5
 
 SOLVING FOR HEAD 
                                                   Max.-Head-Change                         Max.-Flux-Residual
  Residual-Control   Outer-Iter.   Inner-Iter.     Column Row Layer    Maximum-Head-Change  Column Row Layer    Maximum-Flux-Residual          L2-NORM 
          0                 1           2             5    6     1       0.6864549863E-02       5    6    1         0.3682613735E+00      0.1037231971E+01
          0                 2           2             5    6     1      -0.6677337593E-03       5    6    1        -0.3682615450E-01      0.9948255575E-01
          0                 3           1             5    6     1       0.4547010137E-04       5    6    1         0.2577831767E-02      0.6937220965E-02

    ------------------------------------------------
       NWT REQUIRED            3 OUTER ITERATIONS 
       AND A TOTAL OF          5 INNER ITERATIONS.
    ------------------------------------------------

 NO OUTPUT CONTROL FOR STRESS PERIOD   18   TIME STEP    6
 
 SOLVING FOR HEAD 
                                                   Max.-Head-Change                         Max.-Flux-Residual
  Residual-Control   Outer-Iter.   Inner-Iter.     Column Row Layer    Maximum-Head-Change  Column Row Layer    Maximum-Flux-Residual          L2-NORM 
          0                 1           2             5    6     1       0.6660635439E-02       5    6    1         0.3570353699E+00      0.1007219343E+01
          0                 2           2             5    6     1      -0.6478984397E-03       5    6    1        -0.3570355363E-01      0.9644572563E-01
          0                 3           1             5    6     1       0.4411939257E-04       5    6    1         0.2499249682E-02      0.6730753045E-02

    ------------------------------------------------
       NWT REQUIRED            3 OUTER ITERATIONS 
       AND A TOTAL OF          5 INNER ITERATIONS.
    ------------------------------------------------

 NO OUTPUT CONTROL FOR STRESS PERIOD   18   TIME STEP    7
 
 SOLVING FOR HEAD 
                                                   Max.-Head-Change                         Max.-Flux-Residual
  Residual-Control   Outer-Iter.   Inner-Iter.     Column Row Layer    Maximum-Head-Change  Column Row Layer    Maximum-Flux-Residual          L2-NORM 
          0                 1           2             5    6     1       0.6468016954E-02       5    6    1         0.3464381137E+00      0.9792226999E+00
          0                 2           2             5    6     1      -0.6291619072E-03       5    6    1        -0.3464382756E-01      0.9360793030E-01
          0                 3           1             5    6     1       0.4284350684E-04       5    6    1         0.2425068818E-02      0.6540202179E-02

    ------------------------------------------------
       NWT REQUIRED            3 OUTER ITERATIONS 
       AND A TOTAL OF          5 INNER ITERATIONS.
    ------------------------------------------------

 NO OUTPUT CONTROL FOR STRESS PERIOD   18   TIME STEP    8
 
 SOLVING FOR HEAD 
                                                   Max.-Head-Change                         Max.-Flux-Residual
  Residual-Control   Outer-Iter.   Inner-Iter.     Column Row Layer    Maximum-Head-Change  Column Row Layer    Maximum-Flux-Residual          L2-NORM 
          0                 1           2             5    7     1       0.6308081950E-02       5    6    1         0.3364103904E+00      0.9535102795E+00
          0                 2           2             5    7     1      -0.6136045591E-03       5    6    1        -0.3364105475E-01      0.9099310059E-01
          0                 3           1             5    7     1       0.4178423656E-04       5    6    1         0.2354874705E-02      0.6362087174E-02

    ------------------------------------------------
       NWT REQUIRED            3 OUTER ITERATIONS 
       AND A TOTAL OF          5 INNER ITERATIONS.
    ------------------------------------------------

 NO OUTPUT CONTROL FOR STRESS PERIOD   18   TIME STEP    9
 
 SOLVING FOR HEAD 
                                                   Max.-Head-Change                         Max.-Flux-Residual
  Residual-Control   Outer-Iter.   Inner-Iter.     Column Row Layer    Maximum-Head-Change  Column Row Layer    Maximum-Flux-Residual          L2-NORM 
          0                 1           2             5    7     1       0.6206528559E-02       5    7    1         0.3280948336E+00      0.9299562457E+00
          0                 2           2             5    7     1      -0.6037262085E-03       5    7    1        -0.3280949774E-01      0.8859056710E-01
          0                 3           1             5    7     1       0.4111155906E-04       5    7    1         0.2296665697E-02      0.6198894423E-02

    ------------------------------------------------
       NWT REQUIRED            3 OUTER ITERATIONS 
       AND A TOTAL OF          5 INNER ITERATIONS.
    ------------------------------------------------

 NO OUTPUT CONTROL FOR STRESS PERIOD   18   TIME STEP   10
 
 SOLVING FOR HEAD 
                                                   Max.-Head-Change                         Max.-Flux-Residual
  Residual-Control   Outer-Iter.   Inner-Iter.     Column Row Layer    Maximum-Head-Change  Column Row Layer    Maximum-Flux-Residual          L2-NORM 
          0                 1           2             5    7     1       0.6107002419E-02       5    7    1         0.3228088414E+00      0.9083251884E+00
          0                 2           2             5    7     1      -0.5940450498E-03       5    7    1        -0.3228090002E-01      0.8637745553E-01
          0                 3           1             5    7     1       0.4045230944E-04       5    7    1         0.2259663833E-02      0.6048496218E-02

    ------------------------------------------------
       NWT REQUIRED            3 OUTER ITERATIONS 
       AND A TOTAL OF          5 INNER ITERATIONS.
    ------------------------------------------------

 NO OUTPUT CONTROL FOR STRESS PERIOD   18   TIME STEP   11
 
 SOLVING FOR HEAD 
                                                   Max.-Head-Change                         Max.-Flux-Residual
  Residual-Control   Outer-Iter.   Inner-Iter.     Column Row Layer    Maximum-Head-Change  Column Row Layer    Maximum-Flux-Residual          L2-NORM 
          0                 1           2             5    7     1       0.6009539072E-02       5    7    1         0.3176280411E+00      0.8884275571E+00
          0                 2           2             5    7     1      -0.5845645409E-03       5    7    1        -0.3176282124E-01      0.8433626450E-01
          0                 3           1             5    7     1       0.3980672298E-04       5    7    1         0.2223398271E-02      0.5909710282E-02

    ------------------------------------------------
       NWT REQUIRED            3 OUTER ITERATIONS 
       AND A TOTAL OF          5 INNER ITERATIONS.
    ------------------------------------------------

 NO OUTPUT CONTROL FOR STRESS PERIOD   18   TIME STEP   12
 
 SOLVING FOR HEAD 
                                                   Max.-Head-Change                         Max.-Flux-Residual
  Residual-Control   Outer-Iter.   Inner-Iter.     Column Row Layer    Maximum-Head-Change  Column Row Layer    Maximum-Flux-Residual          L2-NORM 
          0                 1           2             4    7     1       0.5976044069E-02       5    7    1         0.3125708323E+00      0.8700789143E+00
          0                 2           2             4    7     1      -0.5813063931E-03       5    7    1        -0.3125710140E-01      0.8244816178E-01
          0                 3           1             4    7     1       0.3958480794E-04       5    7    1         0.2187997874E-02      0.5781034686E-02

    ------------------------------------------------
       NWT REQUIRED            3 OUTER ITERATIONS 
       AND A TOTAL OF          5 INNER ITERATIONS.
    ------------------------------------------------

 NO OUTPUT CONTROL FOR STRESS PERIOD   18   TIME STEP   13
 
 SOLVING FOR HEAD 
                                                   Max.-Head-Change                         Max.-Flux-Residual
  Residual-Control   Outer-Iter.   Inner-Iter.     Column Row Layer    Maximum-Head-Change  Column Row Layer    Maximum-Flux-Residual          L2-NORM 
          0                 1           2             4    7     1       0.5944077596E-02       4    7    1         0.3107550087E+00      0.8531150513E+00
          0                 2           2             4    7     1      -0.5781969582E-03       4    7    1        -0.3107551976E-01      0.8069813079E-01
          0                 3           1             4    7     1       0.3937306654E-04       4    7    1         0.2175287140E-02      0.5661364082E-02

    ------------------------------------------------
       NWT REQUIRED            3 OUTER ITERATIONS 
       AND A TOTAL OF          5 INNER ITERATIONS.
    ------------------------------------------------

 NO OUTPUT CONTROL FOR STRESS PERIOD   18   TIME STEP   14
 
 SOLVING FOR HEAD 
                                                   Max.-Head-Change                         Max.-Flux-Residual
  Residual-Control   Outer-Iter.   Inner-Iter.     Column Row Layer    Maximum-Head-Change  Column Row Layer    Maximum-Flux-Residual          L2-NORM 
          0                 1           2             4    7     1       0.5909556492E-02       4    7    1         0.3090814736E+00      0.8374006768E+00
          0                 2           2             4    7     1      -0.5748390234E-03       4    7    1        -0.3090816815E-01      0.7907291606E-01
          0                 3           1             4    7     1       0.3914440372E-04       4    7    1         0.2163572529E-02      0.5550613402E-02

    ------------------------------------------------
       NWT REQUIRED            3 OUTER ITERATIONS 
       AND A TOTAL OF          5 INNER ITERATIONS.
    ------------------------------------------------

 NO OUTPUT CONTROL FOR STRESS PERIOD   18   TIME STEP   15
 
 SOLVING FOR HEAD 
                                                   Max.-Head-Change                         Max.-Flux-Residual
  Residual-Control   Outer-Iter.   Inner-Iter.     Column Row Layer    Maximum-Head-Change  Column Row Layer    Maximum-Flux-Residual          L2-NORM 
          0                 1           2             4    7     1       0.5872987524E-02       4    7    1         0.3072901895E+00      0.8227909524E+00
          0                 2           2             4    7     1      -0.5712818844E-03       4    7    1        -0.3072904147E-01      0.7755734137E-01
          0                 3           1             4    7     1       0.3890217549E-04       4    7    1         0.2151033632E-02      0.5447100610E-02

    ------------------------------------------------
       NWT REQUIRED            3 OUTER ITERATIONS 
       AND A TOTAL OF          5 INNER ITERATIONS.
    ------------------------------------------------

 NO OUTPUT CONTROL FOR STRESS PERIOD   18   TIME STEP   16
 
 SOLVING FOR HEAD 
                                                   Max.-Head-Change                         Max.-Flux-Residual
  Residual-Control   Outer-Iter.   Inner-Iter.     Column Row Layer    Maximum-Head-Change  Column Row Layer    Maximum-Flux-Residual          L2-NORM 
          0                 1           2             4    7     1      -0.1132747685E+00       5    8    1        -0.5954264647E+01      0.1454925976E+02
          0                 2           2             4    7     1       0.1101846835E-01       5    8    1         0.5954001734E+00      0.1454450305E+01
          0                 3           2             4    7     1      -0.7502916475E-03       5    8    1        -0.4167686194E-01      0.1018094139E+00
          0                 4           1             4    7     1       0.2988000672E-04       5    8    1         0.1706015324E-02      0.4168363963E-02

    ------------------------------------------------
       NWT REQUIRED            4 OUTER ITERATIONS 
       AND A TOTAL OF          7 INNER ITERATIONS.
    ------------------------------------------------

 NO OUTPUT CONTROL FOR STRESS PERIOD   18   TIME STEP   17
 
 SOLVING FOR HEAD 
                                                   Max.-Head-Change                         Max.-Flux-Residual
  Residual-Control   Outer-Iter.   Inner-Iter.     Column Row Layer    Maximum-Head-Change  Column Row Layer    Maximum-Flux-Residual          L2-NORM 
          0                 1           2             5    8     1       0.8222183684E-02       5    8    1         0.4437060749E+00      0.1061584718E+01
          0                 2           2             5    8     1      -0.7998255886E-03       5    8    1        -0.4437078850E-01      0.1026354766E+00
          0                 3           1             5    8     1       0.5446513200E-04       5    8    1         0.3105954837E-02      0.7201012588E-02

    ------------------------------------------------
       NWT REQUIRED            3 OUTER ITERATIONS 
       AND A TOTAL OF          5 INNER ITERATIONS.
    ------------------------------------------------

 NO OUTPUT CONTROL FOR STRESS PERIOD   18   TIME STEP   18
 
 SOLVING FOR HEAD 
                                                   Max.-Head-Change                         Max.-Flux-Residual
  Residual-Control   Outer-Iter.   Inner-Iter.     Column Row Layer    Maximum-Head-Change  Column Row Layer    Maximum-Flux-Residual          L2-NORM 
          0                 1           2             5    6     1       0.7932791692E-02       5    8    1         0.4275975762E+00      0.1035651307E+01
          0                 2           2             5    6     1      -0.7716445638E-03       5    8    1        -0.4275992242E-01      0.9991630143E-01
          0                 3           1             5    6     1       0.5254604429E-04       5    8    1         0.2993194311E-02      0.7011941187E-02

    ------------------------------------------------
       NWT REQUIRED            3 OUTER ITERATIONS 
       AND A TOTAL OF          5 INNER ITERATIONS.
    ------------------------------------------------

 NO OUTPUT CONTROL FOR STRESS PERIOD   18   TIME STEP   19
 
 SOLVING FOR HEAD 
                                                   Max.-Head-Change                         Max.-Flux-Residual
  Residual-Control   Outer-Iter.   Inner-Iter.     Column Row Layer    Maximum-Head-Change  Column Row Layer    Maximum-Flux-Residual          L2-NORM 
          0                 1           2             5    6     1       0.7669820276E-02       5    6    1         0.4125967442E+00      0.1011436999E+01
          0                 2           2             5    6     1      -0.7460646102E-03       5    6    1        -0.4125969161E-01      0.9742081050E-01
          0                 3           1             5    6     1       0.5080414606E-04       5    6    1         0.2888179498E-02      0.6838779647E-02

    ------------------------------------------------
       NWT REQUIRED            3 OUTER ITERATIONS 
       AND A TOTAL OF          5 INNER ITERATIONS.
    ------------------------------------------------

 NO OUTPUT CONTROL FOR STRESS PERIOD   18   TIME STEP   20
 
 SOLVING FOR HEAD 
                                                   Max.-Head-Change                         Max.-Flux-Residual
  Residual-Control   Outer-Iter.   Inner-Iter.     Column Row Layer    Maximum-Head-Change  Column Row Layer    Maximum-Flux-Residual          L2-NORM 
          0                 1           2             5    6     1       0.7422205698E-02       5    6    1         0.3989185844E+00      0.9888418572E+00
          0                 2           2             5    6     1      -0.7219784583E-03       5    6    1        -0.3989187519E-01      0.9508829914E-01
          0                 3           1             5    6     1       0.4916397022E-04       5    6    1         0.2792432297E-02      0.6676893201E-02

    ------------------------------------------------
       NWT REQUIRED            3 OUTER ITERATIONS 
       AND A TOTAL OF          5 INNER ITERATIONS.
    ------------------------------------------------

 NO OUTPUT CONTROL FOR STRESS PERIOD   18   TIME STEP   21
 
 SOLVING FOR HEAD 
                                                   Max.-Head-Change                         Max.-Flux-Residual
  Residual-Control   Outer-Iter.   Inner-Iter.     Column Row Layer    Maximum-Head-Change  Column Row Layer    Maximum-Flux-Residual          L2-NORM 
          0                 1           2             5    6     1       0.7188837542E-02       5    6    1         0.3860372526E+00      0.9677143314E+00
          0                 2           2             5    6     1      -0.6992780947E-03       5    6    1        -0.3860374156E-01      0.9290342497E-01
          0                 3           1             5    6     1       0.4761816218E-04       5    6    1         0.2702262931E-02      0.6524897916E-02

    ------------------------------------------------
       NWT REQUIRED            3 OUTER ITERATIONS 
       AND A TOTAL OF          5 INNER ITERATIONS.
    ------------------------------------------------

 NO OUTPUT CONTROL FOR STRESS PERIOD   18   TIME STEP   22
 
 SOLVING FOR HEAD 
                                                   Max.-Head-Change                         Max.-Flux-Residual
  Residual-Control   Outer-Iter.   Inner-Iter.     Column Row Layer    Maximum-Head-Change  Column Row Layer    Maximum-Flux-Residual          L2-NORM 
          0                 1           2             5    6     1       0.6969003564E-02       5    6    1         0.3739117177E+00      0.9479124879E+00
          0                 2           2             5    6     1      -0.6778942376E-03       5    6    1        -0.3739118765E-01      0.9085263000E-01
          0                 3           1             5    6     1       0.4616200242E-04       5    6    1         0.2617384114E-02      0.6382624264E-02

    ------------------------------------------------
       NWT REQUIRED            3 OUTER ITERATIONS 
       AND A TOTAL OF          5 INNER ITERATIONS.
    ------------------------------------------------

 NO OUTPUT CONTROL FOR STRESS PERIOD   18   TIME STEP   23
 
 SOLVING FOR HEAD 
                                                   Max.-Head-Change                         Max.-Flux-Residual
  Residual-Control   Outer-Iter.   Inner-Iter.     Column Row Layer    Maximum-Head-Change  Column Row Layer    Maximum-Flux-Residual          L2-NORM 
          0                 1           2             5    6     1       0.6761447887E-02       5    6    1         0.3624718524E+00      0.9293371497E+00
          0                 2           2             5    6     1      -0.6577047242E-03       5    6    1        -0.3624720069E-01      0.8892550087E-01
          0                 3           1             5    6     1       0.4478717354E-04       5    6    1         0.2537304993E-02      0.6248737847E-02

    ------------------------------------------------
       NWT REQUIRED            3 OUTER ITERATIONS 
       AND A TOTAL OF          5 INNER ITERATIONS.
    ------------------------------------------------

 NO OUTPUT CONTROL FOR STRESS PERIOD   18   TIME STEP   24
 
 SOLVING FOR HEAD 
                                                   Max.-Head-Change                         Max.-Flux-Residual
  Residual-Control   Outer-Iter.   Inner-Iter.     Column Row Layer    Maximum-Head-Change  Column Row Layer    Maximum-Flux-Residual          L2-NORM 
          0                 1           2             5    6     1       0.6565299600E-02       5    6    1         0.3516690779E+00      0.9118962078E+00
          0                 2           2             5    6     1      -0.6386248395E-03       5    6    1        -0.3516692284E-01      0.8711372617E-01
          0                 3           1             5    6     1       0.4348790639E-04       5    6    1         0.2461685519E-02      0.6123435027E-02

    ------------------------------------------------
       NWT REQUIRED            3 OUTER ITERATIONS 
       AND A TOTAL OF          5 INNER ITERATIONS.
    ------------------------------------------------

 NO OUTPUT CONTROL FOR STRESS PERIOD   18   TIME STEP   25
 
 SOLVING FOR HEAD 
                                                   Max.-Head-Change                         Max.-Flux-Residual
  Residual-Control   Outer-Iter.   Inner-Iter.     Column Row Layer    Maximum-Head-Change  Column Row Layer    Maximum-Flux-Residual          L2-NORM 
          0                 1           2             4    6     1       0.6439212054E-02       5    6    1         0.3414747907E+00      0.8955071780E+00
          0                 2           2             4    6     1      -0.6263600133E-03       5    6    1        -0.3414749370E-01      0.8540753335E-01
          0                 3           1             4    6     1       0.4265284972E-04       5    6    1         0.2390325460E-02      0.6004497041E-02

    ------------------------------------------------
       NWT REQUIRED            3 OUTER ITERATIONS 
       AND A TOTAL OF          5 INNER ITERATIONS.
    ------------------------------------------------

 NO OUTPUT CONTROL FOR STRESS PERIOD   18   TIME STEP   26
 
 SOLVING FOR HEAD 
                                                   Max.-Head-Change                         Max.-Flux-Residual
  Residual-Control   Outer-Iter.   Inner-Iter.     Column Row Layer    Maximum-Head-Change  Column Row Layer    Maximum-Flux-Residual          L2-NORM 
          0                 1           2             4    6     1       0.6322072661E-02       4    6    1         0.3348328748E+00      0.8800780966E+00
          0                 2           2             4    6     1      -0.6149655492E-03       4    6    1        -0.3348330669E-01      0.8379913967E-01
          0                 3           1             4    6     1       0.4187692918E-04       4    6    1         0.2343832298E-02      0.5892809566E-02

    ------------------------------------------------
       NWT REQUIRED            3 OUTER ITERATIONS 
       AND A TOTAL OF          5 INNER ITERATIONS.
    ------------------------------------------------

 NO OUTPUT CONTROL FOR STRESS PERIOD   18   TIME STEP   27
 
 SOLVING FOR HEAD 
                                                   Max.-Head-Change                         Max.-Flux-Residual
  Residual-Control   Outer-Iter.   Inner-Iter.     Column Row Layer    Maximum-Head-Change  Column Row Layer    Maximum-Flux-Residual          L2-NORM 
          0                 1           2             4    7     1       0.6290262864E-02       4    6    1         0.3287398959E+00      0.8655299688E+00
          0                 2           2             4    7     1      -0.6118713146E-03       4    6    1        -0.3287400899E-01      0.8228041113E-01
          0                 3           1             4    7     1       0.4166616547E-04       4    6    1         0.2301181443E-02      0.5787293079E-02

    ------------------------------------------------
       NWT REQUIRED            3 OUTER ITERATIONS 
       AND A TOTAL OF          5 INNER ITERATIONS.
    ------------------------------------------------

 NO OUTPUT CONTROL FOR STRESS PERIOD   18   TIME STEP   28
 
 SOLVING FOR HEAD 
                                                   Max.-Head-Change                         Max.-Flux-Residual
  Residual-Control   Outer-Iter.   Inner-Iter.     Column Row Layer    Maximum-Head-Change  Column Row Layer    Maximum-Flux-Residual          L2-NORM 
          0                 1           2             4    7     1       0.6256304327E-02       4    7    1         0.3270889648E+00      0.8517988850E+00
          0                 2           2             4    7     1      -0.6085681110E-03       4    7    1        -0.3270891562E-01      0.8084479826E-01
          0                 3           1             4    7     1       0.4144122978E-04       4    7    1         0.2289624910E-02      0.5687543410E-02

    ------------------------------------------------
       NWT REQUIRED            3 OUTER ITERATIONS 
       AND A TOTAL OF          5 INNER ITERATIONS.
    ------------------------------------------------

 NO OUTPUT CONTROL FOR STRESS PERIOD   18   TIME STEP   29
 
 SOLVING FOR HEAD 
                                                   Max.-Head-Change                         Max.-Flux-Residual
  Residual-Control   Outer-Iter.   Inner-Iter.     Column Row Layer    Maximum-Head-Change  Column Row Layer    Maximum-Flux-Residual          L2-NORM 
          0                 1           2             4    7     1       0.6219631967E-02       4    7    1         0.3253120630E+00      0.8387960528E+00
          0                 2           2             4    7     1      -0.6050009224E-03       4    7    1        -0.3253122768E-01      0.7948321175E-01
          0                 3           1             4    7     1       0.4119831732E-04       4    7    1         0.2277186727E-02      0.5593091881E-02

    ------------------------------------------------
       NWT REQUIRED            3 OUTER ITERATIONS 
       AND A TOTAL OF          5 INNER ITERATIONS.
    ------------------------------------------------

 NO OUTPUT CONTROL FOR STRESS PERIOD   18   TIME STEP   30



 STREAM LISTING     PERIOD     18   STEP       30

 LAYER ROW COL. STREAM  RCH.  FLOW INTO     FLOW TO   FLOW OUT OF   OVRLND.     DIRECT     STREAM       STREAM     STREAM     STREAM   STREAMBED  STREAMBED
                SEG.NO.  NO.  STRM. RCH.    AQUIFER    STRM. RCH.    RUNOFF     PRECIP       ET          HEAD       DEPTH      WIDTH   CONDCTNC.   GRADIENT

   1    1    1     1     1    6.3000E+01  3.8236E-01   6.2618E+01  0.000E+00  0.000E+00  0.000E+00  1.09461E+03  1.562E+00  1.863E+01  8.382E-02  1.521E+00
   1    2    2     1     2    6.2618E+01  5.9218E-01   6.2025E+01  0.000E+00  0.000E+00  0.000E+00  1.08961E+03  1.556E+00  1.857E+01  1.300E-01  1.519E+00
   1    3    3     1     3    6.2025E+01  5.0506E-01   6.1520E+01  0.000E+00  0.000E+00  0.000E+00  1.08397E+03  1.549E+00  1.850E+01  1.110E-01  1.516E+00
   1    3    4     1     4    6.1520E+01  4.6510E-01   6.1055E+01  0.000E+00  0.000E+00  0.000E+00  1.07895E+03  1.543E+00  1.845E+01  1.024E-01  1.514E+00
   1    4    5     2     1    5.9055E+01  3.9145E-01   5.8664E+01  0.000E+00  0.000E+00  0.000E+00  1.07395E+03  2.019E+00  1.200E+01  7.800E-02  1.673E+00
   1    5    6     2     2    5.8664E+01  3.0068E-01   5.8363E+01  0.000E+00  0.000E+00  0.000E+00  1.06852E+03  2.011E+00  1.200E+01  6.000E-02  1.670E+00
   1    6    6     2     3    5.8363E+01  3.0031E-01   5.8063E+01  0.000E+00  0.000E+00  0.000E+00  1.06380E+03  2.005E+00  1.200E+01  6.000E-02  1.668E+00
   1    7    6     2     4    5.8063E+01  2.9994E-01   5.7763E+01  0.000E+00  0.000E+00  0.000E+00  1.05907E+03  1.999E+00  1.200E+01  6.000E-02  1.666E+00
   1    8    6     2     5    5.7763E+01  2.9957E-01   5.7463E+01  0.000E+00  0.000E+00  0.000E+00  1.05435E+03  1.993E+00  1.200E+01  6.000E-02  1.664E+00
   1    3    5     3     1    2.0000E+00  2.8252E-01   1.7175E+00  0.000E+00  0.000E+00  0.000E+00  1.07555E+03  1.909E+00  9.636E+00  7.227E-02  1.955E+00
   1    3    6     3     2    1.7175E+00  2.4905E-01   1.4684E+00  0.000E+00  0.000E+00  0.000E+00  1.07264E+03  1.727E+00  8.909E+00  6.682E-02  1.864E+00
   1    3    7     3     3    1.4684E+00  1.9718E-01   1.2712E+00  0.000E+00  0.000E+00  0.000E+00  1.06987E+03  1.555E+00  8.218E+00  5.547E-02  1.777E+00
   1    4    8     3     4    1.2712E+00  2.2567E-01   1.0456E+00  0.000E+00  0.000E+00  0.000E+00  1.06682E+03  1.364E+00  7.455E+00  6.709E-02  1.682E+00
   1    5    8     3     5    1.0456E+00  1.5790E-01   8.8768E-01  0.000E+00  0.000E+00  0.000E+00  1.06362E+03  1.164E+00  6.655E+00  4.991E-02  1.582E+00
   1    6    8     3     6    8.8768E-01  5.5980E-02   8.3170E-01  0.000E+00  0.000E+00  0.000E+00  1.06158E+03  1.036E+00  6.145E+00  1.844E-02  1.518E+00
   1    5   10     4     1    1.0000E+01  9.0919E-02   9.9091E+00  0.000E+00  0.000E+00  0.000E+00  1.07836E+03  6.368E-01  1.000E+01  2.500E-02  1.212E+00
   1    5    9     4     2    9.9091E+00  1.8158E-01   9.7275E+00  0.000E+00  0.000E+00  0.000E+00  1.07154E+03  6.315E-01  1.000E+01  5.000E-02  1.211E+00
   1    6    8     4     3    9.7275E+00  1.2689E-01   9.6006E+00  0.000E+00  0.000E+00  0.000E+00  1.06381E+03  6.256E-01  1.000E+01  3.500E-02  1.209E+00
   1    6    8     5     1    1.0432E+01  2.2686E-01   1.0205E+01  0.000E+00  0.000E+00  0.000E+00  1.05868E+03  6.790E-01  1.542E+01  6.166E-02  1.226E+00
   1    7    7     5     2    1.0205E+01  2.7894E-01   9.9265E+00  0.000E+00  0.000E+00  0.000E+00  1.05417E+03  6.732E-01  1.519E+01  7.594E-02  1.224E+00
   1    8    7     5     3    9.9265E+00  1.9221E-01   9.7343E+00  0.000E+00  0.000E+00  0.000E+00  1.04992E+03  6.676E-01  1.497E+01  5.241E-02  1.223E+00
   1    8    6     5     4    9.7343E+00  1.3577E-01   9.5985E+00  0.000E+00  0.000E+00  0.000E+00  1.04691E+03  6.637E-01  1.482E+01  3.706E-02  1.221E+00
   1    9    6     6     1    6.7062E+01  3.1225E-01   6.6750E+01  0.000E+00  0.000E+00  0.000E+00  1.04493E+03  2.204E+00  1.200E+01  6.000E-02  1.735E+00
   1   10    7     6     2    6.6750E+01  3.1188E-01   6.6438E+01  0.000E+00  0.000E+00  0.000E+00  1.04038E+03  2.198E+00  1.200E+01  6.000E-02  1.733E+00
   1   11    7     6     3    6.6438E+01  3.1151E-01   6.6126E+01  0.000E+00  0.000E+00  0.000E+00  1.03583E+03  2.192E+00  1.200E+01  6.000E-02  1.731E+00
   1   12    7     6     4    6.6126E+01  3.1114E-01   6.5815E+01  0.000E+00  0.000E+00  0.000E+00  1.03128E+03  2.186E+00  1.200E+01  6.000E-02  1.729E+00
   1   13    7     6     5    6.5815E+01  2.2909E-02   6.5792E+01  0.000E+00  0.000E+00  0.000E+00  1.02809E+03  2.182E+00  1.200E+01  2.400E-02  3.182E-01
   1   14    9     7     1    1.5000E+02  1.3335E+00   1.4867E+02  0.000E+00  0.000E+00  0.000E+00  1.03987E+03  2.288E+00  5.529E+01  5.593E-01  7.948E-01
   1   13    8     7     2    1.4867E+02  1.8199E+00   1.4685E+02  0.000E+00  0.000E+00  0.000E+00  1.03478E+03  2.279E+00  5.526E+01  6.148E-01  9.868E-01
   1   13    7     7     3    1.4685E+02  1.4258E+00   1.4542E+02  0.000E+00  0.000E+00  0.000E+00  1.02969E+03  2.271E+00  5.522E+01  5.585E-01  8.510E-01
   1   13    6     8     1    2.1121E+02  1.0440E+00   2.1017E+02  0.000E+00  0.000E+00  0.000E+00  1.02507E+03  3.200E+00  4.639E+01  4.728E-01  7.361E-01
   1   13    5     8     2    2.1017E+02  2.4727E-01   2.0992E+02  0.000E+00  0.000E+00  0.000E+00  1.01882E+03  3.196E+00  4.634E+01  4.722E-01  1.745E-01
   1   13    4     8     3    2.0992E+02 -2.2217E+00   2.1214E+02  0.000E+00  0.000E+00  0.000E+00  1.01258E+03  3.202E+00  4.642E+01  4.731E+00 -1.565E-01
   1   13    3     8     4    2.1214E+02 -3.4707E+00   2.1561E+02  0.000E+00  0.000E+00  0.000E+00  1.00634E+03  3.218E+00  4.666E+01  4.754E+00 -2.433E-01
   1   13    2     8     5    2.1561E+02 -2.4566E+00   2.1807E+02  0.000E+00  0.000E+00  0.000E+00  1.00011E+03  3.234E+00  4.690E+01  4.779E+00 -1.713E-01
   1   13    1     8     6    2.1807E+02 -1.8340E+00   2.1990E+02  0.000E+00  0.000E+00  0.000E+00  9.95121E+02  3.246E+00  4.707E+01  2.878E+00 -2.124E-01





UNSATURATED ZONE PACKAGE VOLUMETRIC BUDGET FOR  TIME STEP    30 STRESS PERIOD   18
  ------------------------------------------------------------------------------



     CUMULATIVE VOLUMES      L**3       RATES FOR THIS TIME STEP      L**3/T
     ------------------                 ------------------------

           IN:                                      IN:
           ---                                      ---
        INFILTRATION =   221465579.8843          INFILTRATION =           0.8475

          OUT:                                     OUT:
          ----                                     ----
              UZF ET =   110973269.6571                UZF ET =           3.0869
        UZF RECHARGE =    10340319.1067          UZF RECHARGE =           0.1291

            IN - OUT =   100151991.1204              IN - OUT =          -2.3685

          STORAGE:                                 STORAGE:
          --------                                 --------
      STORAGE CHANGE =   100221493.6784        STORAGE CHANGE =          -2.3685

 PERCENT DISCREPANCY IS DIFFERENCE BETWEEN IN-OUT MINUS CHANGE IN STORAGE
 DIVIDED BY THE AVERAGE OF IN AND OUT TIMES 100

 PERCENT DISCREPANCY =          -0.01     PERCENT DISCREPANCY =           0.00






1
  VOLUMETRIC BUDGET FOR ENTIRE MODEL AT END OF TIME STEP   30, STRESS PERIOD  18
  ------------------------------------------------------------------------------

     CUMULATIVE VOLUMES      L**3       RATES FOR THIS TIME STEP      L**3/T
     ------------------                 ------------------------

           IN:                                      IN:
           ---                                      ---
               AWU WELLS =   183529376.0000                 AWU WELLS =           0.0000
      DIVERSION SEGMENTS =           0.0000        DIVERSION SEGMENTS =           0.0000
           GW IRRIGATION =           0.0000             GW IRRIGATION =           0.0000
           SW IRRIGATION =           0.0000             SW IRRIGATION =           0.0000
        SYSTEM LOSSES GW =           0.0000          SYSTEM LOSSES GW =           0.0000
        SYSTEM LOSSES SW =           0.0000          SYSTEM LOSSES SW =           0.0000

                TOTAL IN =   183529376.0000                  TOTAL IN =           0.0000

          OUT:                                     OUT:
          ----                                     ----
               AWU WELLS =           0.0000                 AWU WELLS =           0.0000
      DIVERSION SEGMENTS =           0.0000        DIVERSION SEGMENTS =           0.0000
           GW IRRIGATION =   183529376.0000             GW IRRIGATION =           0.0000
           SW IRRIGATION =           0.0000             SW IRRIGATION =           0.0000
        SYSTEM LOSSES GW =           0.0000          SYSTEM LOSSES GW =           0.0000
        SYSTEM LOSSES SW =           0.0000          SYSTEM LOSSES SW =           0.0000

               TOTAL OUT =   183529376.0000                 TOTAL OUT =           0.0000

                IN - OUT =           0.0000                  IN - OUT =           0.0000

     PERCENT DISCREPANCY =           0.00         PERCENT DISCREPANCY =           0.00



1
  VOLUMETRIC BUDGET FOR ENTIRE MODEL AT END OF TIME STEP   30, STRESS PERIOD  18
  ------------------------------------------------------------------------------

     CUMULATIVE VOLUMES      L**3       RATES FOR THIS TIME STEP      L**3/T
     ------------------                 ------------------------

           IN:                                      IN:
           ---                                      ---
             STORAGE     =   321480928.0000               STORAGE     =           0.9634
       CONSTANT HEAD     =           0.0000         CONSTANT HEAD     =           0.0000
     HEAD DEP BOUNDS     =    12786821.0000       HEAD DEP BOUNDS     =           0.2856
      STREAM LEAKAGE     =   568632896.0000        STREAM LEAKAGE     =          13.0784
        UZF RECHARGE     =    10340321.0000          UZF RECHARGE     =           0.1291
               GW ET     =           0.0000                 GW ET     =           0.0000
     SURFACE LEAKAGE     =           0.0000       SURFACE LEAKAGE     =           0.0000
           AWU WELLS     =           0.0000             AWU WELLS     =           0.0000

                TOTAL IN =   913240960.0000                  TOTAL IN =          14.4566

          OUT:                                     OUT:
          ----                                     ----
             STORAGE     =   225439984.0000               STORAGE     =           3.1238
       CONSTANT HEAD     =           0.0000         CONSTANT HEAD     =           0.0000
     HEAD DEP BOUNDS     =    13043640.0000       HEAD DEP BOUNDS     =           0.2948
      STREAM LEAKAGE     =   431644416.0000        STREAM LEAKAGE     =           9.9830
        UZF RECHARGE     =           0.0000          UZF RECHARGE     =           0.0000
               GW ET     =    59591108.0000                 GW ET     =           1.0552
     SURFACE LEAKAGE     =           0.0000       SURFACE LEAKAGE     =           0.0000
           AWU WELLS     =   183529376.0000             AWU WELLS     =           0.0000

               TOTAL OUT =   913248512.0000                 TOTAL OUT =          14.4568

                IN - OUT =       -7552.0000                  IN - OUT =      -2.5940E-04

     PERCENT DISCREPANCY =          -0.00         PERCENT DISCREPANCY =          -0.00






         TIME SUMMARY AT END OF TIME STEP   30 IN STRESS PERIOD   18
                    SECONDS     MINUTES      HOURS       DAYS        YEARS
                    -----------------------------------------------------------
   TIME STEP LENGTH  87600.      1460.0      24.333      1.0139     2.77588E-03
 STRESS PERIOD TIME 2.62800E+06  43800.      730.00      30.417     8.32763E-02
         TOTAL TIME 4.47624E+07 7.46040E+05  12434.      518.08      1.4184    
1
1
                            STRESS PERIOD NO.   19, LENGTH =   2628000.    
                            -----------------------------------------------

                              NUMBER OF TIME STEPS =    30

                               MULTIPLIER FOR DELT =     1.000

                            INITIAL TIME STEP SIZE =   87600.00    

 REUSING NON-PARAMETER GHB CELLS FROM LAST STRESS PERIOD

      2 GHB CELLS

 REUSING STREAM SEGMENT DATA FROM LAST STRESS PERIOD



            AREAL INFILTRATION RATE
 READING ON UNIT   19 WITH FORMAT: (10F4.0)            

            1           2           3           4           5           6           7           8           9          10
 ........................................................................................................................
   1   1.0000E-10  2.0000E-10   0.000       0.000       0.000       0.000       0.000       0.000       0.000       0.000    
   2   2.0000E-10  1.0000E-10  2.0000E-10   0.000       0.000      8.0000E-10  8.0000E-10  5.0000E-10   0.000       0.000    
   3    0.000      5.0000E-10  1.0000E-10  1.0000E-10  8.0000E-10  8.0000E-10  5.0000E-10  5.0000E-10   0.000       0.000    
   4   8.0000E-10  5.0000E-10  1.0000E-10  1.0000E-10  1.0000E-10  1.0000E-10  1.0000E-10  1.0000E-10  2.0000E-10   0.000    
   5   8.0000E-10  5.0000E-10  1.0000E-10  1.0000E-10  1.0000E-10  1.0000E-10  1.0000E-10  1.0000E-10  1.0000E-10  1.0000E-10
   6   8.0000E-10  5.0000E-10  5.0000E-10  2.0000E-10  2.0000E-10  1.0000E-10  1.0000E-10  1.0000E-10  1.0000E-10  5.0000E-10
   7   8.0000E-10  5.0000E-10  5.0000E-10  2.0000E-10  2.0000E-10  1.0000E-10  1.0000E-10  2.0000E-10  2.0000E-10   0.000    
   8    0.000      5.0000E-10  5.0000E-10  2.0000E-10  2.0000E-10  1.0000E-10  1.0000E-10  2.0000E-10  5.0000E-10   0.000    
   9    0.000      5.0000E-10  5.0000E-10  2.0000E-10  2.0000E-10  1.0000E-10  1.0000E-10  2.0000E-10  5.0000E-10   0.000    
  10    0.000      5.0000E-10  5.0000E-10  2.0000E-10  2.0000E-10  1.0000E-10  1.0000E-10  2.0000E-10  5.0000E-10  8.0000E-10
  11    0.000      1.0000E-10  1.0000E-10  1.0000E-10  1.0000E-10  1.0000E-10  1.0000E-10  2.0000E-10  5.0000E-10   0.000    
  12   1.0000E-10  1.0000E-10  1.0000E-10  1.0000E-10  1.0000E-10  1.0000E-10  1.0000E-10  1.0000E-10  2.0000E-10   0.000    
  13   1.0000E-10  1.0000E-10  2.0000E-10  2.0000E-10  2.0000E-10  2.0000E-10  2.0000E-10  1.0000E-10  1.0000E-10   0.000    
  14    0.000      2.0000E-10  5.0000E-10  5.0000E-10  5.0000E-10  5.0000E-10  5.0000E-10  2.0000E-10  1.0000E-10   0.000    
  15    0.000       0.000      8.0000E-10  8.0000E-10  8.0000E-10  8.0000E-10   0.000       0.000       0.000       0.000    

                  ET RATE =  3.000000E-08

 USING ET EXTINCTION DEPTH FROM PREVIOUS STRESS PERIOD. CURRENT PERIOD IS:      19

 USING EXTINCTION WATER CONTENT FROM PREVIOUS STRESS PERIOD. CURRENT PERIOD IS:      19

 PROCESSING AWU STRESS PERIOD DATA

 READING AWU STRESS PERIOD DATA

 READING IRRIGATION WELL

 END PROCESSING AWU STRESS PERIOD DATA OPTIONS
 
 SOLVING FOR HEAD 
                                                   Max.-Head-Change                         Max.-Flux-Residual
  Residual-Control   Outer-Iter.   Inner-Iter.     Column Row Layer    Maximum-Head-Change  Column Row Layer    Maximum-Flux-Residual          L2-NORM 
          0                 1           2             1   13     1      -0.9473075780E-02       4   13    1        -0.5380381599E+00      0.1352768942E+01
          0                 2           2             4   13     1       0.9033299542E-03       4   13    1         0.5315975552E-01      0.1308669249E+00
          0                 3           1             4   13     1      -0.6049403699E-04       4   13    1        -0.3659906447E-02      0.8948563135E-02

    ------------------------------------------------
       NWT REQUIRED            3 OUTER ITERATIONS 
       AND A TOTAL OF          5 INNER ITERATIONS.
    ------------------------------------------------

 OUTPUT CONTROL FOR STRESS PERIOD   19   TIME STEP    1
    PRINT BUDGET
    SAVE BUDGET
 UBDSV1 SAVING "         STORAGE" ON UNIT 102 AT TIME STEP  1, STRESS PERIOD  19
 UBDSV2 SAVING "   CONSTANT HEAD" ON UNIT 102 AT TIME STEP  1, STRESS PERIOD  19
 UBDSV1 SAVING "FLOW RIGHT FACE " ON UNIT 102 AT TIME STEP  1, STRESS PERIOD  19
 UBDSV1 SAVING "FLOW FRONT FACE " ON UNIT 102 AT TIME STEP  1, STRESS PERIOD  19

  HEAD DEP BOUNDS   PERIOD   19   STEP     1
 BOUNDARY      1   LAYER   1   ROW    13   COL     1   RATE   -0.294495    
 BOUNDARY      2   LAYER   1   ROW    14   COL     9   RATE    0.285603    



 STREAM LISTING     PERIOD     19   STEP        1

 LAYER ROW COL. STREAM  RCH.  FLOW INTO     FLOW TO   FLOW OUT OF   OVRLND.     DIRECT     STREAM       STREAM     STREAM     STREAM   STREAMBED  STREAMBED
                SEG.NO.  NO.  STRM. RCH.    AQUIFER    STRM. RCH.    RUNOFF     PRECIP       ET          HEAD       DEPTH      WIDTH   CONDCTNC.   GRADIENT

   1    1    1     1     1    6.0146E+01  3.7249E-01   5.9774E+01  0.000E+00  0.000E+00  0.000E+00  1.09457E+03  1.527E+00  1.828E+01  8.228E-02  1.509E+00
   1    2    2     1     2    5.9774E+01  5.7685E-01   5.9197E+01  0.000E+00  0.000E+00  0.000E+00  1.08958E+03  1.521E+00  1.823E+01  1.276E-01  1.507E+00
   1    3    3     1     3    5.9197E+01  4.9194E-01   5.8705E+01  0.000E+00  0.000E+00  0.000E+00  1.08393E+03  1.515E+00  1.816E+01  1.090E-01  1.505E+00
   1    3    4     1     4    5.8705E+01  4.5299E-01   5.8252E+01  0.000E+00  0.000E+00  0.000E+00  1.07892E+03  1.509E+00  1.810E+01  1.005E-01  1.503E+00
   1    4    5     2     1    5.6252E+01  3.8691E-01   5.5865E+01  0.000E+00  0.000E+00  0.000E+00  1.07389E+03  1.960E+00  1.200E+01  7.800E-02  1.653E+00
   1    5    6     2     2    5.5865E+01  2.9719E-01   5.5568E+01  0.000E+00  0.000E+00  0.000E+00  1.06846E+03  1.953E+00  1.200E+01  6.000E-02  1.651E+00
   1    6    6     2     3    5.5568E+01  2.9681E-01   5.5271E+01  0.000E+00  0.000E+00  0.000E+00  1.06374E+03  1.947E+00  1.200E+01  6.000E-02  1.649E+00
   1    7    6     2     4    5.5271E+01  2.9644E-01   5.4975E+01  0.000E+00  0.000E+00  0.000E+00  1.05902E+03  1.941E+00  1.200E+01  6.000E-02  1.647E+00
   1    8    6     2     5    5.4975E+01  2.9606E-01   5.4678E+01  0.000E+00  0.000E+00  0.000E+00  1.05429E+03  1.934E+00  1.200E+01  6.000E-02  1.645E+00
   1    3    5     3     1    2.0000E+00  2.8252E-01   1.7175E+00  0.000E+00  0.000E+00  0.000E+00  1.07555E+03  1.909E+00  9.636E+00  7.227E-02  1.955E+00
   1    3    6     3     2    1.7175E+00  2.4905E-01   1.4684E+00  0.000E+00  0.000E+00  0.000E+00  1.07264E+03  1.727E+00  8.909E+00  6.682E-02  1.864E+00
   1    3    7     3     3    1.4684E+00  1.9718E-01   1.2712E+00  0.000E+00  0.000E+00  0.000E+00  1.06987E+03  1.555E+00  8.218E+00  5.547E-02  1.777E+00
   1    4    8     3     4    1.2712E+00  2.2567E-01   1.0456E+00  0.000E+00  0.000E+00  0.000E+00  1.06682E+03  1.364E+00  7.455E+00  6.709E-02  1.682E+00
   1    5    8     3     5    1.0456E+00  1.5790E-01   8.8768E-01  0.000E+00  0.000E+00  0.000E+00  1.06362E+03  1.164E+00  6.655E+00  4.991E-02  1.582E+00
   1    6    8     3     6    8.8768E-01  5.5980E-02   8.3170E-01  0.000E+00  0.000E+00  0.000E+00  1.06158E+03  1.036E+00  6.145E+00  1.844E-02  1.518E+00
   1    5   10     4     1    1.0000E+01  9.0919E-02   9.9091E+00  0.000E+00  0.000E+00  0.000E+00  1.07836E+03  6.368E-01  1.000E+01  2.500E-02  1.212E+00
   1    5    9     4     2    9.9091E+00  1.8158E-01   9.7275E+00  0.000E+00  0.000E+00  0.000E+00  1.07154E+03  6.315E-01  1.000E+01  5.000E-02  1.211E+00
   1    6    8     4     3    9.7275E+00  1.2689E-01   9.6006E+00  0.000E+00  0.000E+00  0.000E+00  1.06381E+03  6.256E-01  1.000E+01  3.500E-02  1.209E+00
   1    6    8     5     1    1.0432E+01  2.2686E-01   1.0205E+01  0.000E+00  0.000E+00  0.000E+00  1.05868E+03  6.790E-01  1.542E+01  6.166E-02  1.226E+00
   1    7    7     5     2    1.0205E+01  2.7894E-01   9.9265E+00  0.000E+00  0.000E+00  0.000E+00  1.05417E+03  6.732E-01  1.519E+01  7.594E-02  1.224E+00
   1    8    7     5     3    9.9265E+00  1.9221E-01   9.7343E+00  0.000E+00  0.000E+00  0.000E+00  1.04992E+03  6.676E-01  1.497E+01  5.241E-02  1.223E+00
   1    8    6     5     4    9.7343E+00  1.3577E-01   9.5985E+00  0.000E+00  0.000E+00  0.000E+00  1.04691E+03  6.637E-01  1.482E+01  3.706E-02  1.221E+00
   1    9    6     6     1    6.4277E+01  3.0892E-01   6.3968E+01  0.000E+00  0.000E+00  0.000E+00  1.04488E+03  2.149E+00  1.200E+01  6.000E-02  1.716E+00
   1   10    7     6     2    6.3968E+01  3.0855E-01   6.3660E+01  0.000E+00  0.000E+00  0.000E+00  1.04032E+03  2.142E+00  1.200E+01  6.000E-02  1.714E+00
   1   11    7     6     3    6.3660E+01  3.0818E-01   6.3351E+01  0.000E+00  0.000E+00  0.000E+00  1.03577E+03  2.136E+00  1.200E+01  6.000E-02  1.712E+00
   1   12    7     6     4    6.3351E+01  3.0780E-01   6.3044E+01  0.000E+00  0.000E+00  0.000E+00  1.03122E+03  2.130E+00  1.200E+01  6.000E-02  1.710E+00
   1   13    7     6     5    6.3044E+01  2.1605E-02   6.3022E+01  0.000E+00  0.000E+00  0.000E+00  1.02804E+03  2.127E+00  1.200E+01  2.400E-02  3.001E-01
   1   14    9     7     1    1.5000E+02  1.3335E+00   1.4867E+02  0.000E+00  0.000E+00  0.000E+00  1.03987E+03  2.288E+00  5.529E+01  5.593E-01  7.948E-01
   1   13    8     7     2    1.4867E+02  1.8199E+00   1.4685E+02  0.000E+00  0.000E+00  0.000E+00  1.03478E+03  2.279E+00  5.526E+01  6.148E-01  9.868E-01
   1   13    7     7     3    1.4685E+02  1.4265E+00   1.4542E+02  0.000E+00  0.000E+00  0.000E+00  1.02969E+03  2.271E+00  5.522E+01  5.585E-01  8.515E-01
   1   13    6     8     1    2.0844E+02  1.0329E+00   2.0741E+02  0.000E+00  0.000E+00  0.000E+00  1.02506E+03  3.184E+00  4.616E+01  4.704E-01  7.319E-01
   1   13    5     8     2    2.0741E+02  2.4212E-01   2.0717E+02  0.000E+00  0.000E+00  0.000E+00  1.01881E+03  3.180E+00  4.611E+01  4.699E-01  1.718E-01
   1   13    4     8     3    2.0717E+02 -2.2443E+00   2.0941E+02  0.000E+00  0.000E+00  0.000E+00  1.01256E+03  3.186E+00  4.620E+01  4.707E+00 -1.589E-01
   1   13    3     8     4    2.0941E+02 -3.4869E+00   2.1290E+02  0.000E+00  0.000E+00  0.000E+00  1.00633E+03  3.202E+00  4.643E+01  4.732E+00 -2.456E-01
   1   13    2     8     5    2.1290E+02 -2.4936E+00   2.1539E+02  0.000E+00  0.000E+00  0.000E+00  1.00009E+03  3.219E+00  4.668E+01  4.757E+00 -1.747E-01
   1   13    1     8     6    2.1539E+02 -1.8436E+00   2.1724E+02  0.000E+00  0.000E+00  0.000E+00  9.95106E+02  3.231E+00  4.685E+01  2.865E+00 -2.145E-01



 UBDSV3 SAVING "           GW ET" ON UNIT  61 AT TIME STEP  1, STRESS PERIOD  19
 UBDSV3 SAVING "    UZF RECHARGE" ON UNIT  61 AT TIME STEP  1, STRESS PERIOD  19
 UBDSV3 SAVING " SURFACE LEAKAGE" ON UNIT  61 AT TIME STEP  1, STRESS PERIOD  19
 UBDSV3 SAVING "       HORT+DUNN" ON UNIT  61 AT TIME STEP  1, STRESS PERIOD  19
 UBDSV3 SAVING "  STORAGE CHANGE" ON UNIT  61 AT TIME STEP  1, STRESS PERIOD  19


UNSATURATED ZONE PACKAGE VOLUMETRIC BUDGET FOR  TIME STEP     1 STRESS PERIOD   19
  ------------------------------------------------------------------------------



     CUMULATIVE VOLUMES      L**3       RATES FOR THIS TIME STEP      L**3/T
     ------------------                 ------------------------

           IN:                                      IN:
           ---                                      ---
        INFILTRATION =   221539872.6698          INFILTRATION =           0.8481

          OUT:                                     OUT:
          ----                                     ----
              UZF ET =   111746251.0344                UZF ET =           8.8240
        UZF RECHARGE =    10350990.1712          UZF RECHARGE =           0.1218

            IN - OUT =    99442631.4642              IN - OUT =          -8.0977

          STORAGE:                                 STORAGE:
          --------                                 --------
      STORAGE CHANGE =    99512133.9956        STORAGE CHANGE =          -8.0977

 PERCENT DISCREPANCY IS DIFFERENCE BETWEEN IN-OUT MINUS CHANGE IN STORAGE
 DIVIDED BY THE AVERAGE OF IN AND OUT TIMES 100

 PERCENT DISCREPANCY =          -0.01     PERCENT DISCREPANCY =           0.00






 

            AWU WELLS     PERIOD   19   STEP   1
 AWU WELL      1   LAYER   1   ROW     6   COL     4   RATE   -9.852624E-05
 AWU WELL      2   LAYER   1   ROW     6   COL     5   RATE   -9.852624E-05
 AWU WELL      3   LAYER   1   ROW     7   COL     4   RATE   -9.852624E-05
 AWU WELL      4   LAYER   1   ROW     7   COL     5   RATE   -9.852624E-05
 AWU WELL      5   LAYER   1   ROW     8   COL     4   RATE   -9.852624E-05
 AWU WELL      6   LAYER   1   ROW     8   COL     5   RATE   -9.852624E-05
 
 

        GW IRRIGATION     PERIOD   19   STEP   1
 AWU WELL      1   ROW     6   COL     4   RATE    9.852624E-05
 AWU WELL      2   ROW     6   COL     5   RATE    9.852624E-05
 AWU WELL      3   ROW     7   COL     4   RATE    9.852624E-05
 AWU WELL      4   ROW     7   COL     5   RATE    9.852624E-05
 AWU WELL      5   ROW     8   COL     4   RATE    9.852624E-05
 AWU WELL      6   ROW     8   COL     5   RATE    9.852624E-05
 
1
  VOLUMETRIC BUDGET FOR ENTIRE MODEL AT END OF TIME STEP    1, STRESS PERIOD  19
  ------------------------------------------------------------------------------

     CUMULATIVE VOLUMES      L**3       RATES FOR THIS TIME STEP      L**3/T
     ------------------                 ------------------------

           IN:                                      IN:
           ---                                      ---
               AWU WELLS =   183529424.0000                 AWU WELLS =       5.9116E-04
      DIVERSION SEGMENTS =           0.0000        DIVERSION SEGMENTS =           0.0000
           GW IRRIGATION =           0.0000             GW IRRIGATION =           0.0000
           SW IRRIGATION =           0.0000             SW IRRIGATION =           0.0000
        SYSTEM LOSSES GW =           0.0000          SYSTEM LOSSES GW =           0.0000
        SYSTEM LOSSES SW =           0.0000          SYSTEM LOSSES SW =           0.0000

                TOTAL IN =   183529424.0000                  TOTAL IN =       5.9116E-04

          OUT:                                     OUT:
          ----                                     ----
               AWU WELLS =           0.0000                 AWU WELLS =           0.0000
      DIVERSION SEGMENTS =           0.0000        DIVERSION SEGMENTS =           0.0000
           GW IRRIGATION =   183529424.0000             GW IRRIGATION =       5.9116E-04
           SW IRRIGATION =           0.0000             SW IRRIGATION =           0.0000
        SYSTEM LOSSES GW =           0.0000          SYSTEM LOSSES GW =           0.0000
        SYSTEM LOSSES SW =           0.0000          SYSTEM LOSSES SW =           0.0000

               TOTAL OUT =   183529424.0000                 TOTAL OUT =       5.9116E-04

                IN - OUT =           0.0000                  IN - OUT =           0.0000

     PERCENT DISCREPANCY =           0.00         PERCENT DISCREPANCY =           0.00



1
  VOLUMETRIC BUDGET FOR ENTIRE MODEL AT END OF TIME STEP    1, STRESS PERIOD  19
  ------------------------------------------------------------------------------

     CUMULATIVE VOLUMES      L**3       RATES FOR THIS TIME STEP      L**3/T
     ------------------                 ------------------------

           IN:                                      IN:
           ---                                      ---
             STORAGE     =   321757984.0000               STORAGE     =           3.1627
       CONSTANT HEAD     =           0.0000         CONSTANT HEAD     =           0.0000
     HEAD DEP BOUNDS     =    12811840.0000       HEAD DEP BOUNDS     =           0.2856
      STREAM LEAKAGE     =   569769856.0000        STREAM LEAKAGE     =          12.9792
        UZF RECHARGE     =    10350992.0000          UZF RECHARGE     =           0.1218
               GW ET     =           0.0000                 GW ET     =           0.0000
     SURFACE LEAKAGE     =           0.0000       SURFACE LEAKAGE     =           0.0000
           AWU WELLS     =           0.0000             AWU WELLS     =           0.0000

                TOTAL IN =   914690688.0000                  TOTAL IN =          16.5494

          OUT:                                     OUT:
          ----                                     ----
             STORAGE     =   225704976.0000               STORAGE     =           3.0251
       CONSTANT HEAD     =           0.0000         CONSTANT HEAD     =           0.0000
     HEAD DEP BOUNDS     =    13069438.0000       HEAD DEP BOUNDS     =           0.2945
      STREAM LEAKAGE     =   432526400.0000        STREAM LEAKAGE     =          10.0684
        UZF RECHARGE     =           0.0000          UZF RECHARGE     =           0.0000
               GW ET     =    59867964.0000                 GW ET     =           3.1604
     SURFACE LEAKAGE     =           0.0000       SURFACE LEAKAGE     =           0.0000
           AWU WELLS     =   183529424.0000             AWU WELLS     =       5.9116E-04

               TOTAL OUT =   914698176.0000                 TOTAL OUT =          16.5490

                IN - OUT =       -7488.0000                  IN - OUT =       3.7384E-04

     PERCENT DISCREPANCY =          -0.00         PERCENT DISCREPANCY =           0.00






         TIME SUMMARY AT END OF TIME STEP    1 IN STRESS PERIOD   19
                    SECONDS     MINUTES      HOURS       DAYS        YEARS
                    -----------------------------------------------------------
   TIME STEP LENGTH  87600.      1460.0      24.333      1.0139     2.77588E-03
 STRESS PERIOD TIME  87600.      1460.0      24.333      1.0139     2.77588E-03
         TOTAL TIME 4.48500E+07 7.47500E+05  12458.      519.10      1.4212    
1
 
 SOLVING FOR HEAD 
                                                   Max.-Head-Change                         Max.-Flux-Residual
  Residual-Control   Outer-Iter.   Inner-Iter.     Column Row Layer    Maximum-Head-Change  Column Row Layer    Maximum-Flux-Residual          L2-NORM 
          0                 1           2             1   13     1      -0.9447768184E-02       4   13    1        -0.5364012997E+00      0.1344341320E+01
          0                 2           2             4   13     1       0.9007644798E-03       4   13    1         0.5299846331E-01      0.1302702960E+00
          0                 3           1             4   13     1      -0.6032090434E-04       4   13    1        -0.3648633653E-02      0.8903067049E-02

    ------------------------------------------------
       NWT REQUIRED            3 OUTER ITERATIONS 
       AND A TOTAL OF          5 INNER ITERATIONS.
    ------------------------------------------------

 NO OUTPUT CONTROL FOR STRESS PERIOD   19   TIME STEP    2
 
 SOLVING FOR HEAD 
                                                   Max.-Head-Change                         Max.-Flux-Residual
  Residual-Control   Outer-Iter.   Inner-Iter.     Column Row Layer    Maximum-Head-Change  Column Row Layer    Maximum-Flux-Residual          L2-NORM 
          0                 1           2             5    8     1      -0.2243717624E-01       5    8    1        -0.1203147751E+01      0.3089558475E+01
          0                 2           2             5    8     1       0.2181913103E-02       5    8    1         0.1202808285E+00      0.3071934312E+00
          0                 3           2             5    8     1      -0.1491595513E-03       5    8    1        -0.8452455197E-02      0.2151977463E-01
          0                 4           1             5    8     1       0.5371711305E-05       5    8    1         0.3129232905E-03      0.8043735391E-03

    ------------------------------------------------
       NWT REQUIRED            4 OUTER ITERATIONS 
       AND A TOTAL OF          7 INNER ITERATIONS.
    ------------------------------------------------

 NO OUTPUT CONTROL FOR STRESS PERIOD   19   TIME STEP    3
 
 SOLVING FOR HEAD 
                                                   Max.-Head-Change                         Max.-Flux-Residual
  Residual-Control   Outer-Iter.   Inner-Iter.     Column Row Layer    Maximum-Head-Change  Column Row Layer    Maximum-Flux-Residual          L2-NORM 
          0                 1           2             1   13     1      -0.8507782724E-02       1   13    1        -0.4668779602E+00      0.1262312287E+01
          0                 2           2             1   13     1       0.8021810682E-03       1   13    1         0.4525984494E-01      0.1223650729E+00
          0                 3           1             1   13     1      -0.5229458770E-04       1   13    1        -0.3033853644E-02      0.8385459154E-02

    ------------------------------------------------
       NWT REQUIRED            3 OUTER ITERATIONS 
       AND A TOTAL OF          5 INNER ITERATIONS.
    ------------------------------------------------

 NO OUTPUT CONTROL FOR STRESS PERIOD   19   TIME STEP    4
 
 SOLVING FOR HEAD 
                                                   Max.-Head-Change                         Max.-Flux-Residual
  Residual-Control   Outer-Iter.   Inner-Iter.     Column Row Layer    Maximum-Head-Change  Column Row Layer    Maximum-Flux-Residual          L2-NORM 
          0                 1           2             1   13     1      -0.8070373557E-02       1   13    1        -0.4428986890E+00      0.1209810143E+01
          0                 2           2             1   13     1       0.7614876804E-03       1   13    1         0.4296632670E-01      0.1171851800E+00
          0                 3           1             1   13     1      -0.4969258376E-04       1   13    1        -0.2883026786E-02      0.8037600703E-02

    ------------------------------------------------
       NWT REQUIRED            3 OUTER ITERATIONS 
       AND A TOTAL OF          5 INNER ITERATIONS.
    ------------------------------------------------

 NO OUTPUT CONTROL FOR STRESS PERIOD   19   TIME STEP    5
 
 SOLVING FOR HEAD 
                                                   Max.-Head-Change                         Max.-Flux-Residual
  Residual-Control   Outer-Iter.   Inner-Iter.     Column Row Layer    Maximum-Head-Change  Column Row Layer    Maximum-Flux-Residual          L2-NORM 
          0                 1           2             4    7     1      -0.1852442829E+00       5    8    1        -0.9700336574E+01      0.2375347992E+02
          0                 2           2             4    7     1       0.1801824376E-01       5    8    1         0.9699603834E+00      0.2373601583E+01
          0                 3           2             4    7     1      -0.1226977574E-02       5    8    1        -0.6789795117E-01      0.1661483564E+00
          0                 4           1             4    7     1       0.4882257618E-04       5    8    1         0.2777026866E-02      0.6795674934E-02

    ------------------------------------------------
       NWT REQUIRED            4 OUTER ITERATIONS 
       AND A TOTAL OF          7 INNER ITERATIONS.
    ------------------------------------------------

 NO OUTPUT CONTROL FOR STRESS PERIOD   19   TIME STEP    6
 
 SOLVING FOR HEAD 
                                                   Max.-Head-Change                         Max.-Flux-Residual
  Residual-Control   Outer-Iter.   Inner-Iter.     Column Row Layer    Maximum-Head-Change  Column Row Layer    Maximum-Flux-Residual          L2-NORM 
          0                 1           2             4    7     1      -0.1842663404E+00       4    7    1        -0.9632567983E+01      0.2331014917E+02
          0                 2           2             4    7     1       0.1792385865E-01       4    7    1         0.9632423386E+00      0.2330751246E+01
          0                 3           2             4    7     1      -0.1220550591E-02       4    7    1        -0.6742712968E-01      0.1631494816E+00
          0                 4           1             4    7     1       0.4856683955E-04       4    7    1         0.2757772816E-02      0.6673050724E-02

    ------------------------------------------------
       NWT REQUIRED            4 OUTER ITERATIONS 
       AND A TOTAL OF          7 INNER ITERATIONS.
    ------------------------------------------------

 NO OUTPUT CONTROL FOR STRESS PERIOD   19   TIME STEP    7
 
 SOLVING FOR HEAD 
                                                   Max.-Head-Change                         Max.-Flux-Residual
  Residual-Control   Outer-Iter.   Inner-Iter.     Column Row Layer    Maximum-Head-Change  Column Row Layer    Maximum-Flux-Residual          L2-NORM 
          0                 1           2             4    7     1      -0.1832115952E+00       4    7    1        -0.9581657828E+01      0.2289048558E+02
          0                 2           2             4    7     1       0.1782123123E-01       4    7    1         0.9581492798E+00      0.2288802698E+01
          0                 3           2             4    7     1      -0.1213562332E-02       4    7    1        -0.6707063471E-01      0.1602136391E+00
          0                 4           1             4    7     1       0.4828876864E-04       4    7    1         0.2743192064E-02      0.6553005690E-02

    ------------------------------------------------
       NWT REQUIRED            4 OUTER ITERATIONS 
       AND A TOTAL OF          7 INNER ITERATIONS.
    ------------------------------------------------

 NO OUTPUT CONTROL FOR STRESS PERIOD   19   TIME STEP    8
 
 SOLVING FOR HEAD 
                                                   Max.-Head-Change                         Max.-Flux-Residual
  Residual-Control   Outer-Iter.   Inner-Iter.     Column Row Layer    Maximum-Head-Change  Column Row Layer    Maximum-Flux-Residual          L2-NORM 
          0                 1           2             4    7     1      -0.1820881630E+00       4    7    1        -0.9526818553E+01      0.2249176040E+02
          0                 2           2             4    7     1       0.1771192570E-01       4    7    1         0.9526635295E+00      0.2248936543E+01
          0                 3           2             4    7     1      -0.1206119287E-02       4    7    1        -0.6668664927E-01      0.1574235669E+00
          0                 4           1             4    7     1       0.4799260219E-04       4    7    1         0.2727486956E-02      0.6438956798E-02

    ------------------------------------------------
       NWT REQUIRED            4 OUTER ITERATIONS 
       AND A TOTAL OF          7 INNER ITERATIONS.
    ------------------------------------------------

 NO OUTPUT CONTROL FOR STRESS PERIOD   19   TIME STEP    9
 
 SOLVING FOR HEAD 
                                                   Max.-Head-Change                         Max.-Flux-Residual
  Residual-Control   Outer-Iter.   Inner-Iter.     Column Row Layer    Maximum-Head-Change  Column Row Layer    Maximum-Flux-Residual          L2-NORM 
          0                 1           2             4    7     1      -0.1809021108E+00       4    7    1        -0.9468385589E+01      0.2211240409E+02
          0                 2           2             4    7     1       0.1759653195E-01       4    7    1         0.9468186153E+00      0.2211006592E+01
          0                 3           2             4    7     1      -0.1198261627E-02       4    7    1        -0.6627752040E-01      0.1547689197E+00
          0                 4           1             4    7     1       0.4767993728E-04       4    7    1         0.2710753490E-02      0.6330402718E-02

    ------------------------------------------------
       NWT REQUIRED            4 OUTER ITERATIONS 
       AND A TOTAL OF          7 INNER ITERATIONS.
    ------------------------------------------------

 NO OUTPUT CONTROL FOR STRESS PERIOD   19   TIME STEP   10
 
 SOLVING FOR HEAD 
                                                   Max.-Head-Change                         Max.-Flux-Residual
  Residual-Control   Outer-Iter.   Inner-Iter.     Column Row Layer    Maximum-Head-Change  Column Row Layer    Maximum-Flux-Residual          L2-NORM 
          0                 1           2             4    7     1      -0.1796596900E+00       4    7    1        -0.9406703337E+01      0.2175100623E+02
          0                 2           2             4    7     1       0.1747565787E-01       4    7    1         0.9406489619E+00      0.2174871829E+01
          0                 3           2             4    7     1      -0.1190030750E-02       4    7    1        -0.6584565801E-01      0.1522398721E+00
          0                 4           1             4    7     1       0.4735242182E-04       4    7    1         0.2693090220E-02      0.6227003177E-02

    ------------------------------------------------
       NWT REQUIRED            4 OUTER ITERATIONS 
       AND A TOTAL OF          7 INNER ITERATIONS.
    ------------------------------------------------

 NO OUTPUT CONTROL FOR STRESS PERIOD   19   TIME STEP   11
 
 SOLVING FOR HEAD 
                                                   Max.-Head-Change                         Max.-Flux-Residual
  Residual-Control   Outer-Iter.   Inner-Iter.     Column Row Layer    Maximum-Head-Change  Column Row Layer    Maximum-Flux-Residual          L2-NORM 
          0                 1           2             4    7     1      -0.1783667633E+00       4    7    1        -0.9342096197E+01      0.2140627359E+02
          0                 2           2             4    7     1       0.1734986785E-01       4    7    1         0.9341869950E+00      0.2140418255E+01
          0                 3           2             4    7     1      -0.1181459579E-02       4    7    1        -0.6539333200E-01      0.1495619293E+00
          0                 4           1             4    7     1       0.4701136609E-04       4    7    1         0.2674590005E-02      0.6117485315E-02

    ------------------------------------------------
       NWT REQUIRED            4 OUTER ITERATIONS 
       AND A TOTAL OF          7 INNER ITERATIONS.
    ------------------------------------------------

 NO OUTPUT CONTROL FOR STRESS PERIOD   19   TIME STEP   12
 
 SOLVING FOR HEAD 
                                                   Max.-Head-Change                         Max.-Flux-Residual
  Residual-Control   Outer-Iter.   Inner-Iter.     Column Row Layer    Maximum-Head-Change  Column Row Layer    Maximum-Flux-Residual          L2-NORM 
          0                 1           2             4    7     1      -0.1770286869E+00       4    7    1        -0.9274861009E+01      0.2107700739E+02
          0                 2           2             4    7     1       0.1721975435E-01       4    7    1         0.9274623846E+00      0.2110036750E+01
          0                 3           2             4    7     1      -0.1172604902E-02       4    7    1        -0.6492261926E-01      0.1477018427E+00
          0                 4           1             4    7     1       0.4665903004E-04       4    7    1         0.2655337784E-02      0.6041477468E-02

    ------------------------------------------------
       NWT REQUIRED            4 OUTER ITERATIONS 
       AND A TOTAL OF          7 INNER ITERATIONS.
    ------------------------------------------------

 NO OUTPUT CONTROL FOR STRESS PERIOD   19   TIME STEP   13
 
 SOLVING FOR HEAD 
                                                   Max.-Head-Change                         Max.-Flux-Residual
  Residual-Control   Outer-Iter.   Inner-Iter.     Column Row Layer    Maximum-Head-Change  Column Row Layer    Maximum-Flux-Residual          L2-NORM 
          0                 1           2             5    8     1       0.3955729657E-01       5    8    1         0.2168940483E+01      0.4741747041E+01
          0                 2           2             5    8     1      -0.3848423795E-02       5    8    1        -0.2169256128E+00      0.4735405806E+00
          0                 3           2             5    8     1       0.2614838381E-03       5    8    1         0.1515196946E-01      0.3307791167E-01
          0                 4           1             5    8     1      -0.1096870050E-04       5    8    1        -0.6525584458E-03      0.1422058830E-02

    ------------------------------------------------
       NWT REQUIRED            4 OUTER ITERATIONS 
       AND A TOTAL OF          7 INNER ITERATIONS.
    ------------------------------------------------

 NO OUTPUT CONTROL FOR STRESS PERIOD   19   TIME STEP   14
 
 SOLVING FOR HEAD 
                                                   Max.-Head-Change                         Max.-Flux-Residual
  Residual-Control   Outer-Iter.   Inner-Iter.     Column Row Layer    Maximum-Head-Change  Column Row Layer    Maximum-Flux-Residual          L2-NORM 
          0                 1           2             5    8     1       0.3755746307E-01       5    8    1         0.2057232389E+01      0.4541071230E+01
          0                 2           2             5    8     1      -0.3653896684E-02       5    8    1        -0.2057549529E+00      0.4534578187E+00
          0                 3           2             5    8     1       0.2482372352E-03       5    8    1         0.1437002152E-01      0.3167238974E-01
          0                 4           1             5    8     1      -0.1044160570E-04       5    8    1        -0.6205767493E-03      0.1365421845E-02

    ------------------------------------------------
       NWT REQUIRED            4 OUTER ITERATIONS 
       AND A TOTAL OF          7 INNER ITERATIONS.
    ------------------------------------------------

 NO OUTPUT CONTROL FOR STRESS PERIOD   19   TIME STEP   15
 
 SOLVING FOR HEAD 
                                                   Max.-Head-Change                         Max.-Flux-Residual
  Residual-Control   Outer-Iter.   Inner-Iter.     Column Row Layer    Maximum-Head-Change  Column Row Layer    Maximum-Flux-Residual          L2-NORM 
          0                 1           2             5    8     1       0.3569417556E-01       5    8    1         0.1953226918E+01      0.4353873718E+01
          0                 2           2             5    6     1      -0.3448638049E-02       5    6    1        -0.1934076954E+00      0.4334007299E+00
          0                 3           2             5    6     1       0.2342589665E-03       5    6    1         0.1350571147E-01      0.3026855548E-01
          0                 4           1             5    6     1      -0.9886255028E-05       5    6    1        -0.5852264144E-03      0.1309062151E-02

    ------------------------------------------------
       NWT REQUIRED            4 OUTER ITERATIONS 
       AND A TOTAL OF          7 INNER ITERATIONS.
    ------------------------------------------------

 NO OUTPUT CONTROL FOR STRESS PERIOD   19   TIME STEP   16
 
 SOLVING FOR HEAD 
                                                   Max.-Head-Change                         Max.-Flux-Residual
  Residual-Control   Outer-Iter.   Inner-Iter.     Column Row Layer    Maximum-Head-Change  Column Row Layer    Maximum-Flux-Residual          L2-NORM 
          0                 1           2             5    8     1       0.3403264057E-01       5    8    1         0.1858076216E+01      0.4180142575E+01
          0                 2           2             5    8     1      -0.3311092169E-02       5    8    1        -0.1858438036E+00      0.4173346996E+00
          0                 3           2             5    8     1       0.2248923469E-03       5    8    1         0.1297619818E-01      0.2914426292E-01
          0                 4           1             5    8     1      -0.9513230666E-05       5    8    1        -0.5635694663E-03      0.1263900038E-02

    ------------------------------------------------
       NWT REQUIRED            4 OUTER ITERATIONS 
       AND A TOTAL OF          7 INNER ITERATIONS.
    ------------------------------------------------

 NO OUTPUT CONTROL FOR STRESS PERIOD   19   TIME STEP   17
 
 SOLVING FOR HEAD 
                                                   Max.-Head-Change                         Max.-Flux-Residual
  Residual-Control   Outer-Iter.   Inner-Iter.     Column Row Layer    Maximum-Head-Change  Column Row Layer    Maximum-Flux-Residual          L2-NORM 
          0                 1           2             5    8     1       0.3244807070E-01       5    8    1         0.1769914764E+01      0.4018054613E+01
          0                 2           2             5    8     1      -0.3156951606E-02       5    8    1        -0.1770272988E+00      0.4011068480E+00
          0                 3           2             5    8     1       0.2143959978E-03       5    8    1         0.1235904598E-01      0.2800851224E-01
          0                 4           1             5    8     1      -0.9095569721E-05       5    8    1        -0.5383279138E-03      0.1218219893E-02

    ------------------------------------------------
       NWT REQUIRED            4 OUTER ITERATIONS 
       AND A TOTAL OF          7 INNER ITERATIONS.
    ------------------------------------------------

 NO OUTPUT CONTROL FOR STRESS PERIOD   19   TIME STEP   18
 
 SOLVING FOR HEAD 
                                                   Max.-Head-Change                         Max.-Flux-Residual
  Residual-Control   Outer-Iter.   Inner-Iter.     Column Row Layer    Maximum-Head-Change  Column Row Layer    Maximum-Flux-Residual          L2-NORM 
          0                 1           2             5    8     1       0.3096583031E-01       5    8    1         0.1687504438E+01      0.3866269155E+01
          0                 2           2             5    8     1      -0.3012765506E-02       5    8    1        -0.1687859485E+00      0.3859082346E+00
          0                 3           2             5    8     1       0.2045775045E-03       5    8    1         0.1178215422E-01      0.2694472991E-01
          0                 4           1             5    8     1      -0.8704881101E-05       5    8    1        -0.5147329821E-03      0.1175607237E-02

    ------------------------------------------------
       NWT REQUIRED            4 OUTER ITERATIONS 
       AND A TOTAL OF          7 INNER ITERATIONS.
    ------------------------------------------------

 NO OUTPUT CONTROL FOR STRESS PERIOD   19   TIME STEP   19
 
 SOLVING FOR HEAD 
                                                   Max.-Head-Change                         Max.-Flux-Residual
  Residual-Control   Outer-Iter.   Inner-Iter.     Column Row Layer    Maximum-Head-Change  Column Row Layer    Maximum-Flux-Residual          L2-NORM 
          0                 1           2             5    8     1       0.2957855543E-01       5    8    1         0.1610427482E+01      0.3723995353E+01
          0                 2           2             5    8     1      -0.2877817484E-02       5    8    1        -0.1610779720E+00      0.3716600235E+00
          0                 3           2             5    8     1       0.1953880849E-03       5    8    1         0.1124259829E-01      0.2594729559E-01
          0                 4           1             5    8     1      -0.8339223984E-05       5    8    1        -0.4926651047E-03      0.1135426159E-02

    ------------------------------------------------
       NWT REQUIRED            4 OUTER ITERATIONS 
       AND A TOTAL OF          7 INNER ITERATIONS.
    ------------------------------------------------

 NO OUTPUT CONTROL FOR STRESS PERIOD   19   TIME STEP   20
 
 SOLVING FOR HEAD 
                                                   Max.-Head-Change                         Max.-Flux-Residual
  Residual-Control   Outer-Iter.   Inner-Iter.     Column Row Layer    Maximum-Head-Change  Column Row Layer    Maximum-Flux-Residual          L2-NORM 
          0                 1           2             4    7     1      -0.4609147512E-01       4    7    1        -0.2421245813E+01      0.5260057628E+01
          0                 2           2             4    7     1       0.4482793163E-02       4    7    1         0.2420891493E+00      0.5253580388E+00
          0                 3           2             4    7     1      -0.3058578227E-03       4    7    1        -0.1697917346E-01      0.3685325844E-01
          0                 4           1             4    7     1       0.1159066965E-04       4    7    1         0.6615472751E-03      0.1433366024E-02

    ------------------------------------------------
       NWT REQUIRED            4 OUTER ITERATIONS 
       AND A TOTAL OF          7 INNER ITERATIONS.
    ------------------------------------------------

 NO OUTPUT CONTROL FOR STRESS PERIOD   19   TIME STEP   21
 
 SOLVING FOR HEAD 
                                                   Max.-Head-Change                         Max.-Flux-Residual
  Residual-Control   Outer-Iter.   Inner-Iter.     Column Row Layer    Maximum-Head-Change  Column Row Layer    Maximum-Flux-Residual          L2-NORM 
          0                 1           2             5    8     1       0.2880904825E-01       5    8    1         0.1567052949E+01      0.3659893779E+01
          0                 2           2             5    8     1      -0.2802962970E-02       5    8    1        -0.1567403464E+00      0.3652506408E+00
          0                 3           2             5    8     1       0.1902907938E-03       5    8    1         0.1093896599E-01      0.2549936617E-01
          0                 4           1             5    8     1      -0.8136397474E-05       5    8    1        -0.4802465130E-03      0.1117904547E-02

    ------------------------------------------------
       NWT REQUIRED            4 OUTER ITERATIONS 
       AND A TOTAL OF          7 INNER ITERATIONS.
    ------------------------------------------------

 NO OUTPUT CONTROL FOR STRESS PERIOD   19   TIME STEP   22
 
 SOLVING FOR HEAD 
                                                   Max.-Head-Change                         Max.-Flux-Residual
  Residual-Control   Outer-Iter.   Inner-Iter.     Column Row Layer    Maximum-Head-Change  Column Row Layer    Maximum-Flux-Residual          L2-NORM 
          0                 1           2             5    6     1       0.2760446117E-01       5    6    1         0.1498367518E+01      0.3532489261E+01
          0                 2           2             5    6     1      -0.2685749771E-02       5    6    1        -0.1498690128E+00      0.3524871206E+00
          0                 3           2             5    6     1       0.1823090492E-03       5    6    1         0.1045799885E-01      0.2460592918E-01
          0                 4           1             5    6     1      -0.7819121464E-05       5    6    1        -0.4605748193E-03      0.1113410118E-02

    ------------------------------------------------
       NWT REQUIRED            4 OUTER ITERATIONS 
       AND A TOTAL OF          7 INNER ITERATIONS.
    ------------------------------------------------

 NO OUTPUT CONTROL FOR STRESS PERIOD   19   TIME STEP   23
 
 SOLVING FOR HEAD 
                                                   Max.-Head-Change                         Max.-Flux-Residual
  Residual-Control   Outer-Iter.   Inner-Iter.     Column Row Layer    Maximum-Head-Change  Column Row Layer    Maximum-Flux-Residual          L2-NORM 
          0                 1           2             5    6     1       0.2647259613E-01       5    6    1         0.1435774887E+01      0.3412695845E+01
          0                 2           2             5    6     1      -0.2575650883E-02       5    6    1        -0.1436097989E+00      0.3404842742E+00
          0                 3           2             5    6     1       0.1748117159E-03       5    6    1         0.1001985322E-01      0.2376574319E-01
          0                 4           1             5    6     1      -0.7520795688E-05       5    6    1        -0.4426546241E-03      0.1048247235E-02

    ------------------------------------------------
       NWT REQUIRED            4 OUTER ITERATIONS 
       AND A TOTAL OF          7 INNER ITERATIONS.
    ------------------------------------------------

 NO OUTPUT CONTROL FOR STRESS PERIOD   19   TIME STEP   24
 
 SOLVING FOR HEAD 
                                                   Max.-Head-Change                         Max.-Flux-Residual
  Residual-Control   Outer-Iter.   Inner-Iter.     Column Row Layer    Maximum-Head-Change  Column Row Layer    Maximum-Flux-Residual          L2-NORM 
          0                 1           2             5    6     1       0.2540719176E-01       5    6    1         0.1376894949E+01      0.3299945018E+01
          0                 2           2             5    6     1      -0.2472016742E-02       5    6    1        -0.1377218498E+00      0.3291854881E+00
          0                 3           2             5    6     1       0.1677546086E-03       5    6    1         0.9607696178E-02      0.2297476709E-01
          0                 4           1             5    6     1      -0.7239987268E-05       5    6    1        -0.4257973885E-03      0.1016535237E-02

    ------------------------------------------------
       NWT REQUIRED            4 OUTER ITERATIONS 
       AND A TOTAL OF          7 INNER ITERATIONS.
    ------------------------------------------------

 NO OUTPUT CONTROL FOR STRESS PERIOD   19   TIME STEP   25
 
 SOLVING FOR HEAD 
                                                   Max.-Head-Change                         Max.-Flux-Residual
  Residual-Control   Outer-Iter.   Inner-Iter.     Column Row Layer    Maximum-Head-Change  Column Row Layer    Maximum-Flux-Residual          L2-NORM 
          0                 1           2             5    6     1       0.2440385579E-01       5    6    1         0.1321480111E+01      0.3193723269E+01
          0                 2           2             5    6     1      -0.2374420105E-02       5    6    1        -0.1321804067E+00      0.3185398061E+00
          0                 3           2             5    6     1       0.1611086331E-03       5    6    1         0.9219794593E-02      0.2222961568E-01
          0                 4           1             5    6     1      -0.6975538018E-05       5    6    1        -0.4099321854E-03      0.9867344579E-03

    ------------------------------------------------
       NWT REQUIRED            4 OUTER ITERATIONS 
       AND A TOTAL OF          7 INNER ITERATIONS.
    ------------------------------------------------

 NO OUTPUT CONTROL FOR STRESS PERIOD   19   TIME STEP   26
 
 SOLVING FOR HEAD 
                                                   Max.-Head-Change                         Max.-Flux-Residual
  Residual-Control   Outer-Iter.   Inner-Iter.     Column Row Layer    Maximum-Head-Change  Column Row Layer    Maximum-Flux-Residual          L2-NORM 
          0                 1           2             5    6     1       0.2345853080E-01       5    6    1         0.1269302466E+01      0.3093561375E+01
          0                 2           2             5    6     1      -0.2282466302E-02       5    6    1        -0.1269626794E+00      0.3085005663E+00
          0                 3           2             5    6     1       0.1548469151E-03       5    6    1         0.8854553184E-02      0.2152709812E-01
          0                 4           1             5    6     1      -0.6726379096E-05       5    6    1        -0.3949938102E-03      0.9584196862E-03

    ------------------------------------------------
       NWT REQUIRED            4 OUTER ITERATIONS 
       AND A TOTAL OF          7 INNER ITERATIONS.
    ------------------------------------------------

 NO OUTPUT CONTROL FOR STRESS PERIOD   19   TIME STEP   27
 
 SOLVING FOR HEAD 
                                                   Max.-Head-Change                         Max.-Flux-Residual
  Residual-Control   Outer-Iter.   Inner-Iter.     Column Row Layer    Maximum-Head-Change  Column Row Layer    Maximum-Flux-Residual          L2-NORM 
          0                 1           2             5    6     1       0.2256717775E-01       5    6    1         0.1220134926E+01      0.2999008096E+01
          0                 2           2             5    6     1      -0.2195762449E-02       5    6    1        -0.1220459593E+00      0.2990203252E+00
          0                 3           2             5    6     1       0.1489426991E-03       5    6    1         0.8510382304E-02      0.2086350062E-01
          0                 4           1             5    6     1      -0.6491445340E-05       5    6    1        -0.3809171949E-03      0.9318436970E-03

    ------------------------------------------------
       NWT REQUIRED            4 OUTER ITERATIONS 
       AND A TOTAL OF          7 INNER ITERATIONS.
    ------------------------------------------------

 NO OUTPUT CONTROL FOR STRESS PERIOD   19   TIME STEP   28
 
 SOLVING FOR HEAD 
                                                   Max.-Head-Change                         Max.-Flux-Residual
  Residual-Control   Outer-Iter.   Inner-Iter.     Column Row Layer    Maximum-Head-Change  Column Row Layer    Maximum-Flux-Residual          L2-NORM 
          0                 1           2             4    7     1      -0.2662345638E-01       4    7    1        -0.1394883202E+01      0.3279917054E+01
          0                 2           2             4    7     1       0.2589113346E-02       4    7    1         0.1394547300E+00      0.3270481873E+00
          0                 3           2             4    7     1      -0.1769049801E-03       4    7    1        -0.9794743590E-02      0.2297519663E-01
          0                 4           1             4    7     1       0.6459515045E-05       4    7    1         0.3677037751E-03      0.8681133372E-03

    ------------------------------------------------
       NWT REQUIRED            4 OUTER ITERATIONS 
       AND A TOTAL OF          7 INNER ITERATIONS.
    ------------------------------------------------

 NO OUTPUT CONTROL FOR STRESS PERIOD   19   TIME STEP   29
 
 SOLVING FOR HEAD 
                                                   Max.-Head-Change                         Max.-Flux-Residual
  Residual-Control   Outer-Iter.   Inner-Iter.     Column Row Layer    Maximum-Head-Change  Column Row Layer    Maximum-Flux-Residual          L2-NORM 
          0                 1           2             5    6     1       0.2214063915E-01       5    6    1         0.1196567666E+01      0.2967757488E+01
          0                 2           2             5    6     1      -0.2154272061E-02       5    6    1        -0.1196892459E+00      0.2959765030E+00
          0                 3           2             5    6     1       0.1461173556E-03       5    6    1         0.8345412193E-02      0.2064471467E-01
          0                 4           1             5    6     1      -0.6379022317E-05       5    6    1        -0.3741699072E-03      0.9225021035E-03

    ------------------------------------------------
       NWT REQUIRED            4 OUTER ITERATIONS 
       AND A TOTAL OF          7 INNER ITERATIONS.
    ------------------------------------------------

 NO OUTPUT CONTROL FOR STRESS PERIOD   19   TIME STEP   30



 STREAM LISTING     PERIOD     19   STEP       30

 LAYER ROW COL. STREAM  RCH.  FLOW INTO     FLOW TO   FLOW OUT OF   OVRLND.     DIRECT     STREAM       STREAM     STREAM     STREAM   STREAMBED  STREAMBED
                SEG.NO.  NO.  STRM. RCH.    AQUIFER    STRM. RCH.    RUNOFF     PRECIP       ET          HEAD       DEPTH      WIDTH   CONDCTNC.   GRADIENT

   1    1    1     1     1    5.4000E+01  3.5066E-01   5.3649E+01  0.000E+00  0.000E+00  0.000E+00  1.09450E+03  1.450E+00  1.751E+01  7.879E-02  1.483E+00
   1    2    2     1     2    5.3649E+01  5.4294E-01   5.3106E+01  0.000E+00  0.000E+00  0.000E+00  1.08950E+03  1.445E+00  1.745E+01  1.222E-01  1.482E+00
   1    3    3     1     3    5.3106E+01  4.6293E-01   5.2643E+01  0.000E+00  0.000E+00  0.000E+00  1.08386E+03  1.438E+00  1.739E+01  1.043E-01  1.479E+00
   1    3    4     1     4    5.2643E+01  4.2621E-01   5.2217E+01  0.000E+00  0.000E+00  0.000E+00  1.07884E+03  1.432E+00  1.733E+01  9.616E-02  1.477E+00
   1    4    5     2     1    5.0217E+01  3.7681E-01   4.9840E+01  0.000E+00  0.000E+00  0.000E+00  1.07376E+03  1.831E+00  1.200E+01  7.800E-02  1.610E+00
   1    5    6     2     2    4.9840E+01  2.8942E-01   4.9551E+01  0.000E+00  0.000E+00  0.000E+00  1.06833E+03  1.824E+00  1.200E+01  6.000E-02  1.608E+00
   1    6    6     2     3    4.9551E+01  2.8904E-01   4.9262E+01  0.000E+00  0.000E+00  0.000E+00  1.06361E+03  1.817E+00  1.200E+01  6.000E-02  1.606E+00
   1    7    6     2     4    4.9262E+01  2.8865E-01   4.8973E+01  0.000E+00  0.000E+00  0.000E+00  1.05889E+03  1.811E+00  1.200E+01  6.000E-02  1.604E+00
   1    8    6     2     5    4.8973E+01  2.8827E-01   4.8685E+01  0.000E+00  0.000E+00  0.000E+00  1.05416E+03  1.804E+00  1.200E+01  6.000E-02  1.601E+00
   1    3    5     3     1    2.0000E+00  2.8252E-01   1.7175E+00  0.000E+00  0.000E+00  0.000E+00  1.07555E+03  1.909E+00  9.636E+00  7.227E-02  1.955E+00
   1    3    6     3     2    1.7175E+00  2.4905E-01   1.4684E+00  0.000E+00  0.000E+00  0.000E+00  1.07264E+03  1.727E+00  8.909E+00  6.682E-02  1.864E+00
   1    3    7     3     3    1.4684E+00  1.9718E-01   1.2712E+00  0.000E+00  0.000E+00  0.000E+00  1.06987E+03  1.555E+00  8.218E+00  5.547E-02  1.777E+00
   1    4    8     3     4    1.2712E+00  2.2567E-01   1.0456E+00  0.000E+00  0.000E+00  0.000E+00  1.06682E+03  1.364E+00  7.455E+00  6.709E-02  1.682E+00
   1    5    8     3     5    1.0456E+00  1.5790E-01   8.8768E-01  0.000E+00  0.000E+00  0.000E+00  1.06362E+03  1.164E+00  6.655E+00  4.991E-02  1.582E+00
   1    6    8     3     6    8.8768E-01  5.5980E-02   8.3170E-01  0.000E+00  0.000E+00  0.000E+00  1.06158E+03  1.036E+00  6.145E+00  1.844E-02  1.518E+00
   1    5   10     4     1    1.0000E+01  9.0919E-02   9.9091E+00  0.000E+00  0.000E+00  0.000E+00  1.07836E+03  6.368E-01  1.000E+01  2.500E-02  1.212E+00
   1    5    9     4     2    9.9091E+00  1.8158E-01   9.7275E+00  0.000E+00  0.000E+00  0.000E+00  1.07154E+03  6.315E-01  1.000E+01  5.000E-02  1.211E+00
   1    6    8     4     3    9.7275E+00  1.2689E-01   9.6006E+00  0.000E+00  0.000E+00  0.000E+00  1.06381E+03  6.256E-01  1.000E+01  3.500E-02  1.209E+00
   1    6    8     5     1    1.0432E+01  2.2686E-01   1.0205E+01  0.000E+00  0.000E+00  0.000E+00  1.05868E+03  6.790E-01  1.542E+01  6.166E-02  1.226E+00
   1    7    7     5     2    1.0205E+01  2.7894E-01   9.9265E+00  0.000E+00  0.000E+00  0.000E+00  1.05417E+03  6.732E-01  1.519E+01  7.594E-02  1.224E+00
   1    8    7     5     3    9.9265E+00  1.9221E-01   9.7343E+00  0.000E+00  0.000E+00  0.000E+00  1.04992E+03  6.676E-01  1.497E+01  5.241E-02  1.223E+00
   1    8    6     5     4    9.7343E+00  1.3577E-01   9.5985E+00  0.000E+00  0.000E+00  0.000E+00  1.04691E+03  6.637E-01  1.482E+01  3.706E-02  1.221E+00
   1    9    6     6     1    5.8284E+01  3.0156E-01   5.7982E+01  0.000E+00  0.000E+00  0.000E+00  1.04475E+03  2.026E+00  1.200E+01  6.000E-02  1.675E+00
   1   10    7     6     2    5.7982E+01  3.0118E-01   5.7681E+01  0.000E+00  0.000E+00  0.000E+00  1.04020E+03  2.020E+00  1.200E+01  6.000E-02  1.673E+00
   1   11    7     6     3    5.7681E+01  3.0080E-01   5.7380E+01  0.000E+00  0.000E+00  0.000E+00  1.03565E+03  2.013E+00  1.200E+01  6.000E-02  1.671E+00
   1   12    7     6     4    5.7380E+01  3.0042E-01   5.7080E+01  0.000E+00  0.000E+00  0.000E+00  1.03110E+03  2.007E+00  1.200E+01  6.000E-02  1.669E+00
   1   13    7     6     5    5.7080E+01  1.9379E-02   5.7060E+01  0.000E+00  0.000E+00  0.000E+00  1.02791E+03  2.004E+00  1.200E+01  2.400E-02  2.691E-01
   1   14    9     7     1    1.5000E+02  1.3335E+00   1.4867E+02  0.000E+00  0.000E+00  0.000E+00  1.03987E+03  2.288E+00  5.529E+01  5.593E-01  7.947E-01
   1   13    8     7     2    1.4867E+02  1.8220E+00   1.4684E+02  0.000E+00  0.000E+00  0.000E+00  1.03478E+03  2.279E+00  5.526E+01  6.148E-01  9.879E-01
   1   13    7     7     3    1.4684E+02  1.4434E+00   1.4540E+02  0.000E+00  0.000E+00  0.000E+00  1.02969E+03  2.271E+00  5.522E+01  5.585E-01  8.616E-01
   1   13    6     8     1    2.0246E+02  1.0400E+00   2.0142E+02  0.000E+00  0.000E+00  0.000E+00  1.02502E+03  3.149E+00  4.566E+01  4.653E-01  7.450E-01
   1   13    5     8     2    2.0142E+02  2.8777E-01   2.0113E+02  0.000E+00  0.000E+00  0.000E+00  1.01877E+03  3.145E+00  4.561E+01  4.647E-01  2.064E-01
   1   13    4     8     3    2.0113E+02 -1.9363E+00   2.0307E+02  0.000E+00  0.000E+00  0.000E+00  1.01253E+03  3.150E+00  4.568E+01  4.655E+00 -1.387E-01
   1   13    3     8     4    2.0307E+02 -3.1874E+00   2.0626E+02  0.000E+00  0.000E+00  0.000E+00  1.00629E+03  3.165E+00  4.589E+01  4.677E+00 -2.272E-01
   1   13    2     8     5    2.0626E+02 -2.3157E+00   2.0857E+02  0.000E+00  0.000E+00  0.000E+00  1.00006E+03  3.181E+00  4.612E+01  4.700E+00 -1.642E-01
   1   13    1     8     6    2.0857E+02 -1.5608E+00   2.1013E+02  0.000E+00  0.000E+00  0.000E+00  9.95067E+02  3.192E+00  4.628E+01  2.830E+00 -1.838E-01





UNSATURATED ZONE PACKAGE VOLUMETRIC BUDGET FOR  TIME STEP    30 STRESS PERIOD   19
  ------------------------------------------------------------------------------



     CUMULATIVE VOLUMES      L**3       RATES FOR THIS TIME STEP      L**3/T
     ------------------                 ------------------------

           IN:                                      IN:
           ---                                      ---
        INFILTRATION =   269511578.5631          INFILTRATION =           0.8483

          OUT:                                     OUT:
          ----                                     ----
              UZF ET =   126152453.9361                UZF ET =           5.1049
        UZF RECHARGE =    10619882.7521          UZF RECHARGE =           0.0958

            IN - OUT =   132739241.8749              IN - OUT =          -4.3525

          STORAGE:                                 STORAGE:
          --------                                 --------
      STORAGE CHANGE =   132819355.1038        STORAGE CHANGE =          -4.3444

 PERCENT DISCREPANCY IS DIFFERENCE BETWEEN IN-OUT MINUS CHANGE IN STORAGE
 DIVIDED BY THE AVERAGE OF IN AND OUT TIMES 100

 PERCENT DISCREPANCY =          -0.01     PERCENT DISCREPANCY =          -0.16






1
  VOLUMETRIC BUDGET FOR ENTIRE MODEL AT END OF TIME STEP   30, STRESS PERIOD  19
  ------------------------------------------------------------------------------

     CUMULATIVE VOLUMES      L**3       RATES FOR THIS TIME STEP      L**3/T
     ------------------                 ------------------------

           IN:                                      IN:
           ---                                      ---
               AWU WELLS =   229348048.0000                 AWU WELLS =       7.8821E-04
      DIVERSION SEGMENTS =           0.0000        DIVERSION SEGMENTS =           0.0000
           GW IRRIGATION =           0.0000             GW IRRIGATION =           0.0000
           SW IRRIGATION =           0.0000             SW IRRIGATION =           0.0000
        SYSTEM LOSSES GW =           0.0000          SYSTEM LOSSES GW =           0.0000
        SYSTEM LOSSES SW =           0.0000          SYSTEM LOSSES SW =           0.0000

                TOTAL IN =   229348048.0000                  TOTAL IN =       7.8821E-04

          OUT:                                     OUT:
          ----                                     ----
               AWU WELLS =           0.0000                 AWU WELLS =           0.0000
      DIVERSION SEGMENTS =           0.0000        DIVERSION SEGMENTS =           0.0000
           GW IRRIGATION =   229348048.0000             GW IRRIGATION =       7.8821E-04
           SW IRRIGATION =           0.0000             SW IRRIGATION =           0.0000
        SYSTEM LOSSES GW =           0.0000          SYSTEM LOSSES GW =           0.0000
        SYSTEM LOSSES SW =           0.0000          SYSTEM LOSSES SW =           0.0000

               TOTAL OUT =   229348048.0000                 TOTAL OUT =       7.8821E-04

                IN - OUT =           0.0000                  IN - OUT =           0.0000

     PERCENT DISCREPANCY =           0.00         PERCENT DISCREPANCY =           0.00



1
  VOLUMETRIC BUDGET FOR ENTIRE MODEL AT END OF TIME STEP   30, STRESS PERIOD  19
  ------------------------------------------------------------------------------

     CUMULATIVE VOLUMES      L**3       RATES FOR THIS TIME STEP      L**3/T
     ------------------                 ------------------------

           IN:                                      IN:
           ---                                      ---
             STORAGE     =   378306624.0000               STORAGE     =           6.2347
       CONSTANT HEAD     =           0.0000         CONSTANT HEAD     =           0.0000
     HEAD DEP BOUNDS     =    13537391.0000       HEAD DEP BOUNDS     =           0.2856
      STREAM LEAKAGE     =   602700032.0000        STREAM LEAKAGE     =          12.8665
        UZF RECHARGE     =    10619886.0000          UZF RECHARGE     =       9.5844E-02
               GW ET     =           0.0000                 GW ET     =           0.0000
     SURFACE LEAKAGE     =           0.0000       SURFACE LEAKAGE     =           0.0000
           AWU WELLS     =           0.0000             AWU WELLS     =           0.0000

                TOTAL IN =  1005163904.0000                  TOTAL IN =          19.4827

          OUT:                                     OUT:
          ----                                     ----
             STORAGE     =   238311280.0000               STORAGE     =           7.1081
       CONSTANT HEAD     =           0.0000         CONSTANT HEAD     =           0.0000
     HEAD DEP BOUNDS     =    13809478.0000       HEAD DEP BOUNDS     =           0.2895
      STREAM LEAKAGE     =   455916960.0000        STREAM LEAKAGE     =           9.0001
        UZF RECHARGE     =           0.0000          UZF RECHARGE     =           0.0000
               GW ET     =    67785864.0000                 GW ET     =           3.0842
     SURFACE LEAKAGE     =           0.0000       SURFACE LEAKAGE     =           0.0000
           AWU WELLS     =   229348048.0000             AWU WELLS     =       7.8821E-04

               TOTAL OUT =  1005171584.0000                 TOTAL OUT =          19.4827

                IN - OUT =       -7680.0000                  IN - OUT =       1.9073E-05

     PERCENT DISCREPANCY =          -0.00         PERCENT DISCREPANCY =           0.00






         TIME SUMMARY AT END OF TIME STEP   30 IN STRESS PERIOD   19
                    SECONDS     MINUTES      HOURS       DAYS        YEARS
                    -----------------------------------------------------------
   TIME STEP LENGTH  87600.      1460.0      24.333      1.0139     2.77588E-03
 STRESS PERIOD TIME 2.62800E+06  43800.      730.00      30.417     8.32763E-02
         TOTAL TIME 4.73904E+07 7.89840E+05  13164.      548.50      1.5017    
1
1
                            STRESS PERIOD NO.   20, LENGTH =   2628000.    
                            -----------------------------------------------

                              NUMBER OF TIME STEPS =    30

                               MULTIPLIER FOR DELT =     1.000

                            INITIAL TIME STEP SIZE =   87600.00    

 REUSING NON-PARAMETER GHB CELLS FROM LAST STRESS PERIOD

      2 GHB CELLS

 REUSING STREAM SEGMENT DATA FROM LAST STRESS PERIOD



            AREAL INFILTRATION RATE
 READING ON UNIT   19 WITH FORMAT: (10F4.0)            

            1           2           3           4           5           6           7           8           9          10
 ........................................................................................................................
   1   1.0000E-10  2.0000E-10   0.000       0.000       0.000       0.000       0.000       0.000       0.000       0.000    
   2   2.0000E-10  1.0000E-10  2.0000E-10   0.000       0.000      8.0000E-10  8.0000E-10  5.0000E-10   0.000       0.000    
   3    0.000      5.0000E-10  1.0000E-10  1.0000E-10  8.0000E-10  8.0000E-10  5.0000E-10  5.0000E-10   0.000       0.000    
   4   8.0000E-10  5.0000E-10  1.0000E-10  1.0000E-10  1.0000E-10  1.0000E-10  1.0000E-10  1.0000E-10  2.0000E-10   0.000    
   5   8.0000E-10  5.0000E-10  1.0000E-10  1.0000E-10  1.0000E-10  1.0000E-10  1.0000E-10  1.0000E-10  1.0000E-10  1.0000E-10
   6   8.0000E-10  5.0000E-10  5.0000E-10  2.0000E-10  2.0000E-10  1.0000E-10  1.0000E-10  1.0000E-10  1.0000E-10  5.0000E-10
   7   8.0000E-10  5.0000E-10  5.0000E-10  2.0000E-10  2.0000E-10  1.0000E-10  1.0000E-10  2.0000E-10  2.0000E-10   0.000    
   8    0.000      5.0000E-10  5.0000E-10  2.0000E-10  2.0000E-10  1.0000E-10  1.0000E-10  2.0000E-10  5.0000E-10   0.000    
   9    0.000      5.0000E-10  5.0000E-10  2.0000E-10  2.0000E-10  1.0000E-10  1.0000E-10  2.0000E-10  5.0000E-10   0.000    
  10    0.000      5.0000E-10  5.0000E-10  2.0000E-10  2.0000E-10  1.0000E-10  1.0000E-10  2.0000E-10  5.0000E-10  8.0000E-10
  11    0.000      1.0000E-10  1.0000E-10  1.0000E-10  1.0000E-10  1.0000E-10  1.0000E-10  2.0000E-10  5.0000E-10   0.000    
  12   1.0000E-10  1.0000E-10  1.0000E-10  1.0000E-10  1.0000E-10  1.0000E-10  1.0000E-10  1.0000E-10  2.0000E-10   0.000    
  13   1.0000E-10  1.0000E-10  2.0000E-10  2.0000E-10  2.0000E-10  2.0000E-10  2.0000E-10  1.0000E-10  1.0000E-10   0.000    
  14    0.000      2.0000E-10  5.0000E-10  5.0000E-10  5.0000E-10  5.0000E-10  5.0000E-10  2.0000E-10  1.0000E-10   0.000    
  15    0.000       0.000      8.0000E-10  8.0000E-10  8.0000E-10  8.0000E-10   0.000       0.000       0.000       0.000    

                  ET RATE =  6.000000E-08

 USING ET EXTINCTION DEPTH FROM PREVIOUS STRESS PERIOD. CURRENT PERIOD IS:      20

 USING EXTINCTION WATER CONTENT FROM PREVIOUS STRESS PERIOD. CURRENT PERIOD IS:      20

 PROCESSING AWU STRESS PERIOD DATA

 READING AWU STRESS PERIOD DATA

 READING IRRIGATION WELL

 END PROCESSING AWU STRESS PERIOD DATA OPTIONS
 
 SOLVING FOR HEAD 
                                                   Max.-Head-Change                         Max.-Flux-Residual
  Residual-Control   Outer-Iter.   Inner-Iter.     Column Row Layer    Maximum-Head-Change  Column Row Layer    Maximum-Flux-Residual          L2-NORM 
          0                 1           2             5    6     1       0.2132354069E-01       5    6    1         0.1151536266E+01      0.3294310802E+01
          0                 2           2             5    6     1      -0.2075387960E-02       5    6    1        -0.1152189775E+00      0.3270494779E+00
          0                 3           2             5    6     1       0.1401649996E-03       5    6    1         0.7999650902E-02      0.2260539576E-01
          0                 4           1             5    6     1      -0.6707063678E-05       5    6    1        -0.3928703586E-03      0.1054845346E-02

    ------------------------------------------------
       NWT REQUIRED            4 OUTER ITERATIONS 
       AND A TOTAL OF          7 INNER ITERATIONS.
    ------------------------------------------------

 OUTPUT CONTROL FOR STRESS PERIOD   20   TIME STEP    1
    PRINT BUDGET
    SAVE BUDGET
    SAVE BUDGET
 UBDSV1 SAVING "         STORAGE" ON UNIT 102 AT TIME STEP  1, STRESS PERIOD  20
 UBDSV2 SAVING "   CONSTANT HEAD" ON UNIT 102 AT TIME STEP  1, STRESS PERIOD  20
 UBDSV1 SAVING "FLOW RIGHT FACE " ON UNIT 102 AT TIME STEP  1, STRESS PERIOD  20
 UBDSV1 SAVING "FLOW FRONT FACE " ON UNIT 102 AT TIME STEP  1, STRESS PERIOD  20

  HEAD DEP BOUNDS   PERIOD   20   STEP     1
 BOUNDARY      1   LAYER   1   ROW    13   COL     1   RATE   -0.289017    
 BOUNDARY      2   LAYER   1   ROW    14   COL     9   RATE    0.285602    



 STREAM LISTING     PERIOD     20   STEP        1

 LAYER ROW COL. STREAM  RCH.  FLOW INTO     FLOW TO   FLOW OUT OF   OVRLND.     DIRECT     STREAM       STREAM     STREAM     STREAM   STREAMBED  STREAMBED
                SEG.NO.  NO.  STRM. RCH.    AQUIFER    STRM. RCH.    RUNOFF     PRECIP       ET          HEAD       DEPTH      WIDTH   CONDCTNC.   GRADIENT

   1    1    1     1     1    5.4000E+01  3.5066E-01   5.3649E+01  0.000E+00  0.000E+00  0.000E+00  1.09450E+03  1.450E+00  1.751E+01  7.879E-02  1.483E+00
   1    2    2     1     2    5.3649E+01  5.4294E-01   5.3106E+01  0.000E+00  0.000E+00  0.000E+00  1.08950E+03  1.445E+00  1.745E+01  1.222E-01  1.482E+00
   1    3    3     1     3    5.3106E+01  4.6293E-01   5.2643E+01  0.000E+00  0.000E+00  0.000E+00  1.08386E+03  1.438E+00  1.739E+01  1.043E-01  1.479E+00
   1    3    4     1     4    5.2643E+01  4.2621E-01   5.2217E+01  0.000E+00  0.000E+00  0.000E+00  1.07884E+03  1.432E+00  1.733E+01  9.616E-02  1.477E+00
   1    4    5     2     1    5.0217E+01  3.7681E-01   4.9840E+01  0.000E+00  0.000E+00  0.000E+00  1.07376E+03  1.831E+00  1.200E+01  7.800E-02  1.610E+00
   1    5    6     2     2    4.9840E+01  2.8942E-01   4.9551E+01  0.000E+00  0.000E+00  0.000E+00  1.06833E+03  1.824E+00  1.200E+01  6.000E-02  1.608E+00
   1    6    6     2     3    4.9551E+01  2.8904E-01   4.9262E+01  0.000E+00  0.000E+00  0.000E+00  1.06361E+03  1.817E+00  1.200E+01  6.000E-02  1.606E+00
   1    7    6     2     4    4.9262E+01  2.8865E-01   4.8973E+01  0.000E+00  0.000E+00  0.000E+00  1.05889E+03  1.811E+00  1.200E+01  6.000E-02  1.604E+00
   1    8    6     2     5    4.8973E+01  2.8827E-01   4.8685E+01  0.000E+00  0.000E+00  0.000E+00  1.05416E+03  1.804E+00  1.200E+01  6.000E-02  1.601E+00
   1    3    5     3     1    2.0000E+00  2.8252E-01   1.7175E+00  0.000E+00  0.000E+00  0.000E+00  1.07555E+03  1.909E+00  9.636E+00  7.227E-02  1.955E+00
   1    3    6     3     2    1.7175E+00  2.4905E-01   1.4684E+00  0.000E+00  0.000E+00  0.000E+00  1.07264E+03  1.727E+00  8.909E+00  6.682E-02  1.864E+00
   1    3    7     3     3    1.4684E+00  1.9718E-01   1.2712E+00  0.000E+00  0.000E+00  0.000E+00  1.06987E+03  1.555E+00  8.218E+00  5.547E-02  1.777E+00
   1    4    8     3     4    1.2712E+00  2.2567E-01   1.0456E+00  0.000E+00  0.000E+00  0.000E+00  1.06682E+03  1.364E+00  7.455E+00  6.709E-02  1.682E+00
   1    5    8     3     5    1.0456E+00  1.5790E-01   8.8768E-01  0.000E+00  0.000E+00  0.000E+00  1.06362E+03  1.164E+00  6.655E+00  4.991E-02  1.582E+00
   1    6    8     3     6    8.8768E-01  5.5980E-02   8.3170E-01  0.000E+00  0.000E+00  0.000E+00  1.06158E+03  1.036E+00  6.145E+00  1.844E-02  1.518E+00
   1    5   10     4     1    1.0000E+01  9.0919E-02   9.9091E+00  0.000E+00  0.000E+00  0.000E+00  1.07836E+03  6.368E-01  1.000E+01  2.500E-02  1.212E+00
   1    5    9     4     2    9.9091E+00  1.8158E-01   9.7275E+00  0.000E+00  0.000E+00  0.000E+00  1.07154E+03  6.315E-01  1.000E+01  5.000E-02  1.211E+00
   1    6    8     4     3    9.7275E+00  1.2689E-01   9.6006E+00  0.000E+00  0.000E+00  0.000E+00  1.06381E+03  6.256E-01  1.000E+01  3.500E-02  1.209E+00
   1    6    8     5     1    1.0432E+01  2.2686E-01   1.0205E+01  0.000E+00  0.000E+00  0.000E+00  1.05868E+03  6.790E-01  1.542E+01  6.166E-02  1.226E+00
   1    7    7     5     2    1.0205E+01  2.7894E-01   9.9265E+00  0.000E+00  0.000E+00  0.000E+00  1.05417E+03  6.732E-01  1.519E+01  7.594E-02  1.224E+00
   1    8    7     5     3    9.9265E+00  1.9221E-01   9.7343E+00  0.000E+00  0.000E+00  0.000E+00  1.04992E+03  6.676E-01  1.497E+01  5.241E-02  1.223E+00
   1    8    6     5     4    9.7343E+00  1.3577E-01   9.5985E+00  0.000E+00  0.000E+00  0.000E+00  1.04691E+03  6.637E-01  1.482E+01  3.706E-02  1.221E+00
   1    9    6     6     1    5.8284E+01  3.0156E-01   5.7982E+01  0.000E+00  0.000E+00  0.000E+00  1.04475E+03  2.026E+00  1.200E+01  6.000E-02  1.675E+00
   1   10    7     6     2    5.7982E+01  3.0118E-01   5.7681E+01  0.000E+00  0.000E+00  0.000E+00  1.04020E+03  2.020E+00  1.200E+01  6.000E-02  1.673E+00
   1   11    7     6     3    5.7681E+01  3.0080E-01   5.7380E+01  0.000E+00  0.000E+00  0.000E+00  1.03565E+03  2.013E+00  1.200E+01  6.000E-02  1.671E+00
   1   12    7     6     4    5.7380E+01  3.0042E-01   5.7080E+01  0.000E+00  0.000E+00  0.000E+00  1.03110E+03  2.007E+00  1.200E+01  6.000E-02  1.669E+00
   1   13    7     6     5    5.7080E+01  1.9436E-02   5.7060E+01  0.000E+00  0.000E+00  0.000E+00  1.02791E+03  2.004E+00  1.200E+01  2.400E-02  2.699E-01
   1   14    9     7     1    1.5000E+02  1.3335E+00   1.4867E+02  0.000E+00  0.000E+00  0.000E+00  1.03987E+03  2.288E+00  5.529E+01  5.593E-01  7.948E-01
   1   13    8     7     2    1.4867E+02  1.8222E+00   1.4684E+02  0.000E+00  0.000E+00  0.000E+00  1.03478E+03  2.279E+00  5.526E+01  6.148E-01  9.880E-01
   1   13    7     7     3    1.4684E+02  1.4448E+00   1.4540E+02  0.000E+00  0.000E+00  0.000E+00  1.02969E+03  2.271E+00  5.522E+01  5.585E-01  8.624E-01
   1   13    6     8     1    2.0246E+02  1.0426E+00   2.0142E+02  0.000E+00  0.000E+00  0.000E+00  1.02502E+03  3.149E+00  4.566E+01  4.653E-01  7.469E-01
   1   13    5     8     2    2.0142E+02  2.9343E-01   2.0112E+02  0.000E+00  0.000E+00  0.000E+00  1.01877E+03  3.145E+00  4.561E+01  4.647E-01  2.105E-01
   1   13    4     8     3    2.0112E+02 -1.8780E+00   2.0300E+02  0.000E+00  0.000E+00  0.000E+00  1.01252E+03  3.150E+00  4.567E+01  4.654E+00 -1.345E-01
   1   13    3     8     4    2.0300E+02 -3.1310E+00   2.0613E+02  0.000E+00  0.000E+00  0.000E+00  1.00629E+03  3.164E+00  4.588E+01  4.676E+00 -2.232E-01
   1   13    2     8     5    2.0613E+02 -2.2860E+00   2.0842E+02  0.000E+00  0.000E+00  0.000E+00  1.00006E+03  3.180E+00  4.611E+01  4.699E+00 -1.622E-01
   1   13    1     8     6    2.0842E+02 -1.5269E+00   2.0995E+02  0.000E+00  0.000E+00  0.000E+00  9.95066E+02  3.191E+00  4.627E+01  2.829E+00 -1.799E-01



 UBDSV3 SAVING "           GW ET" ON UNIT  61 AT TIME STEP  1, STRESS PERIOD  20
 UBDSV3 SAVING "    UZF RECHARGE" ON UNIT  61 AT TIME STEP  1, STRESS PERIOD  20
 UBDSV3 SAVING " SURFACE LEAKAGE" ON UNIT  61 AT TIME STEP  1, STRESS PERIOD  20
 UBDSV3 SAVING "       HORT+DUNN" ON UNIT  61 AT TIME STEP  1, STRESS PERIOD  20
 UBDSV3 SAVING "  STORAGE CHANGE" ON UNIT  61 AT TIME STEP  1, STRESS PERIOD  20


UNSATURATED ZONE PACKAGE VOLUMETRIC BUDGET FOR  TIME STEP     1 STRESS PERIOD   20
  ------------------------------------------------------------------------------



     CUMULATIVE VOLUMES      L**3       RATES FOR THIS TIME STEP      L**3/T
     ------------------                 ------------------------

           IN:                                      IN:
           ---                                      ---
        INFILTRATION =   269585957.6576          INFILTRATION =           0.8491

          OUT:                                     OUT:
          ----                                     ----
              UZF ET =   127043950.8508                UZF ET =          10.1769
        UZF RECHARGE =    10628223.0657          UZF RECHARGE =           0.0952

            IN - OUT =   131913783.7411              IN - OUT =          -9.4230

          STORAGE:                                 STORAGE:
          --------                                 --------
      STORAGE CHANGE =   131993896.9284        STORAGE CHANGE =          -9.4230

 PERCENT DISCREPANCY IS DIFFERENCE BETWEEN IN-OUT MINUS CHANGE IN STORAGE
 DIVIDED BY THE AVERAGE OF IN AND OUT TIMES 100

 PERCENT DISCREPANCY =          -0.01     PERCENT DISCREPANCY =           0.00






 

            AWU WELLS     PERIOD   20   STEP   1
 AWU WELL      1   LAYER   1   ROW     6   COL     4   RATE   -2.627367E-04
 AWU WELL      2   LAYER   1   ROW     6   COL     5   RATE   -2.627367E-04
 AWU WELL      3   LAYER   1   ROW     7   COL     4   RATE   -2.627367E-04
 AWU WELL      4   LAYER   1   ROW     7   COL     5   RATE   -2.627367E-04
 AWU WELL      5   LAYER   1   ROW     8   COL     4   RATE   -2.627367E-04
 AWU WELL      6   LAYER   1   ROW     8   COL     5   RATE   -2.627367E-04
 
 

        GW IRRIGATION     PERIOD   20   STEP   1
 AWU WELL      1   ROW     6   COL     4   RATE    2.627367E-04
 AWU WELL      2   ROW     6   COL     5   RATE    2.627367E-04
 AWU WELL      3   ROW     7   COL     4   RATE    2.627367E-04
 AWU WELL      4   ROW     7   COL     5   RATE    2.627367E-04
 AWU WELL      5   ROW     8   COL     4   RATE    2.627367E-04
 AWU WELL      6   ROW     8   COL     5   RATE    2.627367E-04
 
1
  VOLUMETRIC BUDGET FOR ENTIRE MODEL AT END OF TIME STEP    1, STRESS PERIOD  20
  ------------------------------------------------------------------------------

     CUMULATIVE VOLUMES      L**3       RATES FOR THIS TIME STEP      L**3/T
     ------------------                 ------------------------

           IN:                                      IN:
           ---                                      ---
               AWU WELLS =   229348192.0000                 AWU WELLS =       1.5764E-03
      DIVERSION SEGMENTS =           0.0000        DIVERSION SEGMENTS =           0.0000
           GW IRRIGATION =           0.0000             GW IRRIGATION =           0.0000
           SW IRRIGATION =           0.0000             SW IRRIGATION =           0.0000
        SYSTEM LOSSES GW =           0.0000          SYSTEM LOSSES GW =           0.0000
        SYSTEM LOSSES SW =           0.0000          SYSTEM LOSSES SW =           0.0000

                TOTAL IN =   229348192.0000                  TOTAL IN =       1.5764E-03

          OUT:                                     OUT:
          ----                                     ----
               AWU WELLS =           0.0000                 AWU WELLS =           0.0000
      DIVERSION SEGMENTS =           0.0000        DIVERSION SEGMENTS =           0.0000
           GW IRRIGATION =   229348192.0000             GW IRRIGATION =       1.5764E-03
           SW IRRIGATION =           0.0000             SW IRRIGATION =           0.0000
        SYSTEM LOSSES GW =           0.0000          SYSTEM LOSSES GW =           0.0000
        SYSTEM LOSSES SW =           0.0000          SYSTEM LOSSES SW =           0.0000

               TOTAL OUT =   229348192.0000                 TOTAL OUT =       1.5764E-03

                IN - OUT =           0.0000                  IN - OUT =           0.0000

     PERCENT DISCREPANCY =           0.00         PERCENT DISCREPANCY =           0.00



1
  VOLUMETRIC BUDGET FOR ENTIRE MODEL AT END OF TIME STEP    1, STRESS PERIOD  20
  ------------------------------------------------------------------------------

     CUMULATIVE VOLUMES      L**3       RATES FOR THIS TIME STEP      L**3/T
     ------------------                 ------------------------

           IN:                                      IN:
           ---                                      ---
             STORAGE     =   379090720.0000               STORAGE     =           8.9509
       CONSTANT HEAD     =           0.0000         CONSTANT HEAD     =           0.0000
     HEAD DEP BOUNDS     =    13562410.0000       HEAD DEP BOUNDS     =           0.2856
      STREAM LEAKAGE     =   603827968.0000        STREAM LEAKAGE     =          12.8762
        UZF RECHARGE     =    10628226.0000          UZF RECHARGE     =       9.5209E-02
               GW ET     =           0.0000                 GW ET     =           0.0000
     SURFACE LEAKAGE     =           0.0000       SURFACE LEAKAGE     =           0.0000
           AWU WELLS     =           0.0000             AWU WELLS     =           0.0000

                TOTAL IN =  1007109312.0000                  TOTAL IN =          22.2079

          OUT:                                     OUT:
          ----                                     ----
             STORAGE     =   238919696.0000               STORAGE     =           6.9453
       CONSTANT HEAD     =           0.0000         CONSTANT HEAD     =           0.0000
     HEAD DEP BOUNDS     =    13834796.0000       HEAD DEP BOUNDS     =           0.2890
      STREAM LEAKAGE     =   456689760.0000        STREAM LEAKAGE     =           8.8219
        UZF RECHARGE     =           0.0000          UZF RECHARGE     =           0.0000
               GW ET     =    68324608.0000                 GW ET     =           6.1501
     SURFACE LEAKAGE     =           0.0000       SURFACE LEAKAGE     =           0.0000
           AWU WELLS     =   229348192.0000             AWU WELLS     =       1.5764E-03

               TOTAL OUT =  1007117056.0000                 TOTAL OUT =          22.2079

                IN - OUT =       -7744.0000                  IN - OUT =       1.3351E-05

     PERCENT DISCREPANCY =          -0.00         PERCENT DISCREPANCY =           0.00






         TIME SUMMARY AT END OF TIME STEP    1 IN STRESS PERIOD   20
                    SECONDS     MINUTES      HOURS       DAYS        YEARS
                    -----------------------------------------------------------
   TIME STEP LENGTH  87600.      1460.0      24.333      1.0139     2.77588E-03
 STRESS PERIOD TIME  87600.      1460.0      24.333      1.0139     2.77588E-03
         TOTAL TIME 4.74780E+07 7.91300E+05  13188.      549.51      1.5045    
1
 
 SOLVING FOR HEAD 
                                                   Max.-Head-Change                         Max.-Flux-Residual
  Residual-Control   Outer-Iter.   Inner-Iter.     Column Row Layer    Maximum-Head-Change  Column Row Layer    Maximum-Flux-Residual          L2-NORM 
          0                 1           2             5    6     1       0.2055290730E-01       5    6    1         0.1109091195E+01      0.3171710997E+01
          0                 2           2             5    6     1      -0.2000426737E-02       5    6    1        -0.1109744972E+00      0.3149584895E+00
          0                 3           2             5    6     1       0.1350604140E-03       5    6    1         0.7702536898E-02      0.2177592821E-01
          0                 4           1             5    6     1      -0.6503947506E-05       5    6    1        -0.3807183521E-03      0.1023423400E-02

    ------------------------------------------------
       NWT REQUIRED            4 OUTER ITERATIONS 
       AND A TOTAL OF          7 INNER ITERATIONS.
    ------------------------------------------------

 NO OUTPUT CONTROL FOR STRESS PERIOD   20   TIME STEP    2
 
 SOLVING FOR HEAD 
                                                   Max.-Head-Change                         Max.-Flux-Residual
  Residual-Control   Outer-Iter.   Inner-Iter.     Column Row Layer    Maximum-Head-Change  Column Row Layer    Maximum-Flux-Residual          L2-NORM 
          0                 1           2             5    6     1       0.1982464341E-01       5    6    1         0.1069004708E+01      0.3058240035E+01
          0                 2           2             5    6     1      -0.1929586877E-02       5    6    1        -0.1069658731E+00      0.3037609784E+00
          0                 3           2             5    6     1       0.1302364783E-03       5    6    1         0.7421932858E-02      0.2100647673E-01
          0                 4           1             5    6     1      -0.6311998942E-05       5    6    1        -0.3692416253E-03      0.9942584880E-03

    ------------------------------------------------
       NWT REQUIRED            4 OUTER ITERATIONS 
       AND A TOTAL OF          7 INNER ITERATIONS.
    ------------------------------------------------

 NO OUTPUT CONTROL FOR STRESS PERIOD   20   TIME STEP    3
 
 SOLVING FOR HEAD 
                                                   Max.-Head-Change                         Max.-Flux-Residual
  Residual-Control   Outer-Iter.   Inner-Iter.     Column Row Layer    Maximum-Head-Change  Column Row Layer    Maximum-Flux-Residual          L2-NORM 
          0                 1           2             4    7     1      -0.5935170926E-01       4    7    1        -0.3101627395E+01      0.7657193346E+01
          0                 2           2             4    7     1       0.5772049418E-02       4    7    1         0.3100951426E+00      0.7647593617E+00
          0                 3           2             4    7     1      -0.3942471615E-03       4    7    1        -0.2177248986E-01      0.5364999022E-01
          0                 4           1             4    7     1       0.1452806241E-04       4    7    1         0.8246924681E-03      0.2035471106E-02

    ------------------------------------------------
       NWT REQUIRED            4 OUTER ITERATIONS 
       AND A TOTAL OF          7 INNER ITERATIONS.
    ------------------------------------------------

 NO OUTPUT CONTROL FOR STRESS PERIOD   20   TIME STEP    4
 
 SOLVING FOR HEAD 
                                                   Max.-Head-Change                         Max.-Flux-Residual
  Residual-Control   Outer-Iter.   Inner-Iter.     Column Row Layer    Maximum-Head-Change  Column Row Layer    Maximum-Flux-Residual          L2-NORM 
          0                 1           2             5    6     1       0.2057191506E-01       5    6    1         0.1110104238E+01      0.3051597575E+01
          0                 2           2             5    6     1      -0.2002275805E-02       5    6    1        -0.1110758104E+00      0.3034762871E+00
          0                 3           2             5    6     1       0.1351863263E-03       5    6    1         0.7709628733E-02      0.2101651934E-01
          0                 4           1             5    6     1      -0.6508959241E-05       5    6    1        -0.3810084213E-03      0.9994953731E-03

    ------------------------------------------------
       NWT REQUIRED            4 OUTER ITERATIONS 
       AND A TOTAL OF          7 INNER ITERATIONS.
    ------------------------------------------------

 NO OUTPUT CONTROL FOR STRESS PERIOD   20   TIME STEP    5
 
 SOLVING FOR HEAD 
                                                   Max.-Head-Change                         Max.-Flux-Residual
  Residual-Control   Outer-Iter.   Inner-Iter.     Column Row Layer    Maximum-Head-Change  Column Row Layer    Maximum-Flux-Residual          L2-NORM 
          0                 1           2             5    6     1       0.1984347751E-01       5    6    1         0.1069990911E+01      0.2951693524E+01
          0                 2           2             5    6     1      -0.1931419040E-02       5    6    1        -0.1070645015E+00      0.2935783926E+00
          0                 3           2             5    6     1       0.1303612399E-03       5    6    1         0.7428836761E-02      0.2033350747E-01
          0                 4           1             5    6     1      -0.6316964856E-05       5    6    1        -0.3695240155E-03      0.9736126218E-03

    ------------------------------------------------
       NWT REQUIRED            4 OUTER ITERATIONS 
       AND A TOTAL OF          7 INNER ITERATIONS.
    ------------------------------------------------

 NO OUTPUT CONTROL FOR STRESS PERIOD   20   TIME STEP    6
 
 SOLVING FOR HEAD 
                                                   Max.-Head-Change                         Max.-Flux-Residual
  Residual-Control   Outer-Iter.   Inner-Iter.     Column Row Layer    Maximum-Head-Change  Column Row Layer    Maximum-Flux-Residual          L2-NORM 
          0                 1           2             5    7     1       0.1933258227E-01       5    6    1         0.1032110467E+01      0.2858338277E+01
          0                 2           2             5    7     1      -0.1881741954E-02       5    6    1        -0.1032764789E+00      0.2843215928E+00
          0                 3           2             5    7     1       0.1269622638E-03       5    6    1         0.7163674882E-02      0.1969395862E-01
          0                 4           1             5    7     1      -0.6197422803E-05       5    6    1        -0.3586788771E-03      0.9490300437E-03

    ------------------------------------------------
       NWT REQUIRED            4 OUTER ITERATIONS 
       AND A TOTAL OF          7 INNER ITERATIONS.
    ------------------------------------------------

 NO OUTPUT CONTROL FOR STRESS PERIOD   20   TIME STEP    7
 
 SOLVING FOR HEAD 
                                                   Max.-Head-Change                         Max.-Flux-Residual
  Residual-Control   Outer-Iter.   Inner-Iter.     Column Row Layer    Maximum-Head-Change  Column Row Layer    Maximum-Flux-Residual          L2-NORM 
          0                 1           2             5   13     1      -0.1056364639E-01       5   13    1        -0.5690702398E+00      0.1352945190E+01
          0                 2           2             5   13     1       0.1027039514E-02       5   13    1         0.5688541465E-01      0.1320275907E+00
          0                 3           1             5   13     1      -0.6988792031E-04       5   13    1        -0.3979819815E-02      0.9106364112E-02

    ------------------------------------------------
       NWT REQUIRED            3 OUTER ITERATIONS 
       AND A TOTAL OF          5 INNER ITERATIONS.
    ------------------------------------------------

 NO OUTPUT CONTROL FOR STRESS PERIOD   20   TIME STEP    8
 
 SOLVING FOR HEAD 
                                                   Max.-Head-Change                         Max.-Flux-Residual
  Residual-Control   Outer-Iter.   Inner-Iter.     Column Row Layer    Maximum-Head-Change  Column Row Layer    Maximum-Flux-Residual          L2-NORM 
          0                 1           2             5    7     1       0.1884431652E-01       5    7    1         0.9996885098E+00      0.2734939318E+01
          0                 2           2             5    7     1      -0.1834247571E-02       5    7    1        -0.1000344644E+00      0.2721329728E+00
          0                 3           2             5    7     1       0.1237280672E-03       5    7    1         0.6936732051E-02      0.1885597546E-01
          0                 4           1             5    7     1      -0.6068731790E-05       5    7    1        -0.3493969093E-03      0.9174816807E-03

    ------------------------------------------------
       NWT REQUIRED            4 OUTER ITERATIONS 
       AND A TOTAL OF          7 INNER ITERATIONS.
    ------------------------------------------------

 NO OUTPUT CONTROL FOR STRESS PERIOD   20   TIME STEP    9
 
 SOLVING FOR HEAD 
                                                   Max.-Head-Change                         Max.-Flux-Residual
  Residual-Control   Outer-Iter.   Inner-Iter.     Column Row Layer    Maximum-Head-Change  Column Row Layer    Maximum-Flux-Residual          L2-NORM 
          0                 1           2             5    7     1       0.1847567742E-01       5    7    1         0.9801248937E+00      0.2655941930E+01
          0                 2           2             5    7     1      -0.1798389439E-02       5    7    1        -0.9807813114E-01      0.2642822718E+00
          0                 3           2             5    7     1       0.1212862572E-03       5    7    1         0.6799788387E-02      0.1831240613E-01
          0                 4           1             5    7     1      -0.5971569852E-05       5    7    1        -0.3437958940E-03      0.8962770505E-03

    ------------------------------------------------
       NWT REQUIRED            4 OUTER ITERATIONS 
       AND A TOTAL OF          7 INNER ITERATIONS.
    ------------------------------------------------

 NO OUTPUT CONTROL FOR STRESS PERIOD   20   TIME STEP   10
 
 SOLVING FOR HEAD 
                                                   Max.-Head-Change                         Max.-Flux-Residual
  Residual-Control   Outer-Iter.   Inner-Iter.     Column Row Layer    Maximum-Head-Change  Column Row Layer    Maximum-Flux-Residual          L2-NORM 
          0                 1           2             4    7     1       0.1825577716E-01       5    7    1         0.9609471572E+00      0.2581593973E+01
          0                 2           2             4    7     1      -0.1777012990E-02       5    7    1        -0.9616038215E-01      0.2568885652E+00
          0                 3           2             4    7     1       0.1198184341E-03       5    7    1         0.6665545671E-02      0.1780054054E-01
          0                 4           1             4    7     1      -0.5924983929E-05       5    7    1        -0.3383053674E-03      0.8768408802E-03

    ------------------------------------------------
       NWT REQUIRED            4 OUTER ITERATIONS 
       AND A TOTAL OF          7 INNER ITERATIONS.
    ------------------------------------------------

 NO OUTPUT CONTROL FOR STRESS PERIOD   20   TIME STEP   11
 
 SOLVING FOR HEAD 
                                                   Max.-Head-Change                         Max.-Flux-Residual
  Residual-Control   Outer-Iter.   Inner-Iter.     Column Row Layer    Maximum-Head-Change  Column Row Layer    Maximum-Flux-Residual          L2-NORM 
          0                 1           2             5   13     1      -0.9153902701E-02       5   13    1        -0.4932616161E+00      0.1313028210E+01
          0                 2           2             5   13     1       0.8899696431E-03       5   13    1         0.4930631483E-01      0.1287225760E+00
          0                 3           1             5   13     1      -0.6056123350E-04       5   13    1        -0.3449546967E-02      0.8861715838E-02

    ------------------------------------------------
       NWT REQUIRED            3 OUTER ITERATIONS 
       AND A TOTAL OF          5 INNER ITERATIONS.
    ------------------------------------------------

 NO OUTPUT CONTROL FOR STRESS PERIOD   20   TIME STEP   12
 
 SOLVING FOR HEAD 
                                                   Max.-Head-Change                         Max.-Flux-Residual
  Residual-Control   Outer-Iter.   Inner-Iter.     Column Row Layer    Maximum-Head-Change  Column Row Layer    Maximum-Flux-Residual          L2-NORM 
          0                 1           2             4    7     1       0.1804377043E-01       4    7    1         0.9453767195E+00      0.2475561907E+01
          0                 2           2             4    7     1      -0.1756391058E-02       4    7    1        -0.9460344478E-01      0.2463618711E+00
          0                 3           2             4    7     1       0.1184141517E-03       4    7    1         0.6556558989E-02      0.1707207481E-01
          0                 4           1             4    7     1      -0.5869105942E-05       4    7    1        -0.3338478068E-03      0.8487828179E-03

    ------------------------------------------------
       NWT REQUIRED            4 OUTER ITERATIONS 
       AND A TOTAL OF          7 INNER ITERATIONS.
    ------------------------------------------------

 NO OUTPUT CONTROL FOR STRESS PERIOD   20   TIME STEP   13
 
 SOLVING FOR HEAD 
                                                   Max.-Head-Change                         Max.-Flux-Residual
  Residual-Control   Outer-Iter.   Inner-Iter.     Column Row Layer    Maximum-Head-Change  Column Row Layer    Maximum-Flux-Residual          L2-NORM 
          0                 1           2             4    7     1       0.1789881803E-01       4    7    1         0.9382489718E+00      0.2411671855E+01
          0                 2           2             4    7     1      -0.1742291482E-02       4    7    1        -0.9389069334E-01      0.2399933029E+00
          0                 3           2             4    7     1       0.1174540197E-03       4    7    1         0.6506666148E-02      0.1663029032E-01
          0                 4           1             4    7     1      -0.5830900963E-05       4    7    1        -0.3318071874E-03      0.8317719197E-03

    ------------------------------------------------
       NWT REQUIRED            4 OUTER ITERATIONS 
       AND A TOTAL OF          7 INNER ITERATIONS.
    ------------------------------------------------

 NO OUTPUT CONTROL FOR STRESS PERIOD   20   TIME STEP   14
 
 SOLVING FOR HEAD 
                                                   Max.-Head-Change                         Max.-Flux-Residual
  Residual-Control   Outer-Iter.   Inner-Iter.     Column Row Layer    Maximum-Head-Change  Column Row Layer    Maximum-Flux-Residual          L2-NORM 
          0                 1           2             4    7     1       0.1774695050E-01       4    7    1         0.9307202476E+00      0.2351176042E+01
          0                 2           2             4    7     1      -0.1727519211E-02       4    7    1        -0.9313784160E-01      0.2339591904E+00
          0                 3           2             4    7     1       0.1164480804E-03       4    7    1         0.6453966312E-02      0.1621081922E-01
          0                 4           1             4    7     1      -0.5790874205E-05       4    7    1        -0.3296517805E-03      0.8150512137E-03

    ------------------------------------------------
       NWT REQUIRED            4 OUTER ITERATIONS 
       AND A TOTAL OF          7 INNER ITERATIONS.
    ------------------------------------------------

 NO OUTPUT CONTROL FOR STRESS PERIOD   20   TIME STEP   15
 
 SOLVING FOR HEAD 
                                                   Max.-Head-Change                         Max.-Flux-Residual
  Residual-Control   Outer-Iter.   Inner-Iter.     Column Row Layer    Maximum-Head-Change  Column Row Layer    Maximum-Flux-Residual          L2-NORM 
          0                 1           2             5   13     1      -0.7932542347E-02       5   13    1        -0.4273779288E+00      0.1168027518E+01
          0                 2           2             5   13     1       0.7712174639E-03       5   13    1         0.4271976094E-01      0.1143353270E+00
          0                 3           1             5   13     1      -0.5247884979E-04       5   13    1        -0.2988630406E-02      0.7876081728E-02

    ------------------------------------------------
       NWT REQUIRED            3 OUTER ITERATIONS 
       AND A TOTAL OF          5 INNER ITERATIONS.
    ------------------------------------------------

 NO OUTPUT CONTROL FOR STRESS PERIOD   20   TIME STEP   16
 
 SOLVING FOR HEAD 
                                                   Max.-Head-Change                         Max.-Flux-Residual
  Residual-Control   Outer-Iter.   Inner-Iter.     Column Row Layer    Maximum-Head-Change  Column Row Layer    Maximum-Flux-Residual          L2-NORM 
          0                 1           2             4    7     1       0.1748314199E-01       4    7    1         0.9173676252E+00      0.2265829569E+01
          0                 2           2             4    7     1      -0.1701858155E-02       4    7    1        -0.9180260152E-01      0.2254594106E+00
          0                 3           2             4    7     1       0.1147006547E-03       4    7    1         0.6360499256E-02      0.1562146992E-01
          0                 4           1             4    7     1      -0.5721341854E-05       4    7    1        -0.3258289594E-03      0.7923123969E-03

    ------------------------------------------------
       NWT REQUIRED            4 OUTER ITERATIONS 
       AND A TOTAL OF          7 INNER ITERATIONS.
    ------------------------------------------------

 NO OUTPUT CONTROL FOR STRESS PERIOD   20   TIME STEP   17
 
 SOLVING FOR HEAD 
                                                   Max.-Head-Change                         Max.-Flux-Residual
  Residual-Control   Outer-Iter.   Inner-Iter.     Column Row Layer    Maximum-Head-Change  Column Row Layer    Maximum-Flux-Residual          L2-NORM 
          0                 1           2             4    7     1       0.1731877173E-01       4    7    1         0.9090997877E+00      0.2212903516E+01
          0                 2           2             4    7     1      -0.1685869629E-02       4    7    1        -0.9097583295E-01      0.2201706621E+00
          0                 3           2             4    7     1       0.1136118936E-03       4    7    1         0.6302625295E-02      0.1525335716E-01
          0                 4           1             4    7     1      -0.5678018647E-05       4    7    1        -0.3234619205E-03      0.7778682814E-03

    ------------------------------------------------
       NWT REQUIRED            4 OUTER ITERATIONS 
       AND A TOTAL OF          7 INNER ITERATIONS.
    ------------------------------------------------

 NO OUTPUT CONTROL FOR STRESS PERIOD   20   TIME STEP   18
 
 SOLVING FOR HEAD 
                                                   Max.-Head-Change                         Max.-Flux-Residual
  Residual-Control   Outer-Iter.   Inner-Iter.     Column Row Layer    Maximum-Head-Change  Column Row Layer    Maximum-Flux-Residual          L2-NORM 
          0                 1           2             4    7     1      -0.1742335536E+00       5    8    1        -0.9256869321E+01      0.2252732268E+02
          0                 2           2             4    7     1       0.1694800946E-01       5    8    1         0.9256191510E+00      0.2252538837E+01
          0                 3           2             4    7     1      -0.1154098220E-02       5    8    1        -0.6479400977E-01      0.1576777189E+00
          0                 4           1             4    7     1       0.4592264041E-04       5    8    1         0.2650075712E-02      0.6449447901E-02

    ------------------------------------------------
       NWT REQUIRED            4 OUTER ITERATIONS 
       AND A TOTAL OF          7 INNER ITERATIONS.
    ------------------------------------------------

 NO OUTPUT CONTROL FOR STRESS PERIOD   20   TIME STEP   19
 
 SOLVING FOR HEAD 
                                                   Max.-Head-Change                         Max.-Flux-Residual
  Residual-Control   Outer-Iter.   Inner-Iter.     Column Row Layer    Maximum-Head-Change  Column Row Layer    Maximum-Flux-Residual          L2-NORM 
          0                 1           2             4    7     1      -0.1733939522E+00       4    7    1        -0.9059928226E+01      0.2211746626E+02
          0                 2           2             4    7     1       0.1686630891E-01       4    7    1         0.9059807817E+00      0.2211556364E+01
          0                 3           2             4    7     1      -0.1148535011E-02       4    7    1        -0.6341879607E-01      0.1548091105E+00
          0                 4           1             4    7     1       0.4570127386E-04       4    7    1         0.2593831844E-02      0.6332121005E-02

    ------------------------------------------------
       NWT REQUIRED            4 OUTER ITERATIONS 
       AND A TOTAL OF          7 INNER ITERATIONS.
    ------------------------------------------------

 NO OUTPUT CONTROL FOR STRESS PERIOD   20   TIME STEP   20
 
 SOLVING FOR HEAD 
                                                   Max.-Head-Change                         Max.-Flux-Residual
  Residual-Control   Outer-Iter.   Inner-Iter.     Column Row Layer    Maximum-Head-Change  Column Row Layer    Maximum-Flux-Residual          L2-NORM 
          0                 1           2             4    7     1      -0.1724801529E+00       4    7    1        -0.9016260938E+01      0.2172897942E+02
          0                 2           2             4    7     1       0.1677739408E-01       4    7    1         0.9016121764E+00      0.2172710505E+01
          0                 3           2             4    7     1      -0.1142480506E-02       4    7    1        -0.6311301132E-01      0.1520900666E+00
          0                 4           1             4    7     1       0.4546035842E-04       4    7    1         0.2581325155E-02      0.6220949341E-02

    ------------------------------------------------
       NWT REQUIRED            4 OUTER ITERATIONS 
       AND A TOTAL OF          7 INNER ITERATIONS.
    ------------------------------------------------

 NO OUTPUT CONTROL FOR STRESS PERIOD   20   TIME STEP   21
 
 SOLVING FOR HEAD 
                                                   Max.-Head-Change                         Max.-Flux-Residual
  Residual-Control   Outer-Iter.   Inner-Iter.     Column Row Layer    Maximum-Head-Change  Column Row Layer    Maximum-Flux-Residual          L2-NORM 
          0                 1           2             5    8     1       0.2766750532E-01       5    8    1         0.1502808695E+01      0.3525787772E+01
          0                 2           2             5    8     1      -0.2692516112E-02       5    8    1        -0.1503485957E+00      0.3519932462E+00
          0                 3           2             5    8     1       0.1821895036E-03       5    8    1         0.1045870273E-01      0.2449261237E-01
          0                 4           1             5    8     1      -0.8378594975E-05       5    8    1        -0.4934457945E-03      0.1151882738E-02

    ------------------------------------------------
       NWT REQUIRED            4 OUTER ITERATIONS 
       AND A TOTAL OF          7 INNER ITERATIONS.
    ------------------------------------------------

 NO OUTPUT CONTROL FOR STRESS PERIOD   20   TIME STEP   22
 
 SOLVING FOR HEAD 
                                                   Max.-Head-Change                         Max.-Flux-Residual
  Residual-Control   Outer-Iter.   Inner-Iter.     Column Row Layer    Maximum-Head-Change  Column Row Layer    Maximum-Flux-Residual          L2-NORM 
          0                 1           2             5    8     1       0.2651648763E-01       5    8    1         0.1438889568E+01      0.3413344382E+01
          0                 2           2             5    8     1      -0.2580550498E-02       5    8    1        -0.1439564743E+00      0.3407376065E+00
          0                 3           2             5    8     1       0.1745650919E-03       5    8    1         0.1001125602E-01      0.2370484819E-01
          0                 4           1             5    8     1      -0.8075210262E-05       5    8    1        -0.4751451968E-03      0.1120721292E-02

    ------------------------------------------------
       NWT REQUIRED            4 OUTER ITERATIONS 
       AND A TOTAL OF          7 INNER ITERATIONS.
    ------------------------------------------------

 NO OUTPUT CONTROL FOR STRESS PERIOD   20   TIME STEP   23
 
 SOLVING FOR HEAD 
                                                   Max.-Head-Change                         Max.-Flux-Residual
  Residual-Control   Outer-Iter.   Inner-Iter.     Column Row Layer    Maximum-Head-Change  Column Row Layer    Maximum-Flux-Residual          L2-NORM 
          0                 1           2             5    8     1       0.2543773371E-01       5    8    1         0.1379030806E+01      0.3307657053E+01
          0                 2           2             5    8     1      -0.2475614514E-02       5    8    1        -0.1379704129E+00      0.3301571213E+00
          0                 3           2             5    8     1       0.1674193685E-03       5    8    1         0.9592233311E-02      0.2296428017E-01
          0                 4           1             5    8     1      -0.7790873526E-05       5    8    1        -0.4580071391E-03      0.1091339183E-02

    ------------------------------------------------
       NWT REQUIRED            4 OUTER ITERATIONS 
       AND A TOTAL OF          7 INNER ITERATIONS.
    ------------------------------------------------

 NO OUTPUT CONTROL FOR STRESS PERIOD   20   TIME STEP   24
 
 SOLVING FOR HEAD 
                                                   Max.-Head-Change                         Max.-Flux-Residual
  Residual-Control   Outer-Iter.   Inner-Iter.     Column Row Layer    Maximum-Head-Change  Column Row Layer    Maximum-Flux-Residual          L2-NORM 
          0                 1           2             3    7     1      -0.7806328638E-02       6    7    1        -0.3941590620E+00      0.1261887209E+01
          0                 2           2             3    7     1       0.7593308045E-03       6    7    1         0.3941574689E-01      0.1242145975E+00
          0                 3           1             3    7     1      -0.5171798321E-04       6    7    1        -0.2759104972E-02      0.8703535347E-02

    ------------------------------------------------
       NWT REQUIRED            3 OUTER ITERATIONS 
       AND A TOTAL OF          5 INNER ITERATIONS.
    ------------------------------------------------

 NO OUTPUT CONTROL FOR STRESS PERIOD   20   TIME STEP   25
 
 SOLVING FOR HEAD 
                                                   Max.-Head-Change                         Max.-Flux-Residual
  Residual-Control   Outer-Iter.   Inner-Iter.     Column Row Layer    Maximum-Head-Change  Column Row Layer    Maximum-Flux-Residual          L2-NORM 
          0                 1           2             4    7     1      -0.1713774805E+00       4    7    1        -0.8958579483E+01      0.2159780449E+02
          0                 2           2             4    7     1       0.1667013568E-01       4    7    1         0.8958441171E+00      0.2159601642E+01
          0                 3           2             4    7     1      -0.1135176591E-02       4    7    1        -0.6270924618E-01      0.1511731039E+00
          0                 4           1             4    7     1       0.4516972893E-04       4    7    1         0.2564811145E-02      0.6183484886E-02

    ------------------------------------------------
       NWT REQUIRED            4 OUTER ITERATIONS 
       AND A TOTAL OF          7 INNER ITERATIONS.
    ------------------------------------------------

 NO OUTPUT CONTROL FOR STRESS PERIOD   20   TIME STEP   26
 
 SOLVING FOR HEAD 
                                                   Max.-Head-Change                         Max.-Flux-Residual
  Residual-Control   Outer-Iter.   Inner-Iter.     Column Row Layer    Maximum-Head-Change  Column Row Layer    Maximum-Flux-Residual          L2-NORM 
          0                 1           2             4    7     1      -0.1704037541E+00       4    7    1        -0.8911404492E+01      0.2123247247E+02
          0                 2           2             4    7     1       0.1657539934E-01       4    7    1         0.8911249753E+00      0.2123562078E+01
          0                 3           2             4    7     1      -0.1128725531E-02       4    7    1        -0.6237892163E-01      0.1486500809E+00
          0                 4           1             4    7     1       0.4491303433E-04       4    7    1         0.2551300766E-02      0.6080321262E-02

    ------------------------------------------------
       NWT REQUIRED            4 OUTER ITERATIONS 
       AND A TOTAL OF          7 INNER ITERATIONS.
    ------------------------------------------------

 NO OUTPUT CONTROL FOR STRESS PERIOD   20   TIME STEP   27
 
 SOLVING FOR HEAD 
                                                   Max.-Head-Change                         Max.-Flux-Residual
  Residual-Control   Outer-Iter.   Inner-Iter.     Column Row Layer    Maximum-Head-Change  Column Row Layer    Maximum-Flux-Residual          L2-NORM 
          0                 1           2             4    7     1      -0.1693693262E+00       4    7    1        -0.8860762620E+01      0.2088506425E+02
          0                 2           2             4    7     1       0.1647476170E-01       4    7    1         0.8860593230E+00      0.2088363163E+01
          0                 3           2             4    7     1      -0.1121872692E-02       4    7    1        -0.6202433968E-01      0.1461862503E+00
          0                 4           1             4    7     1       0.4464035253E-04       4    7    1         0.2536798283E-02      0.5979563355E-02

    ------------------------------------------------
       NWT REQUIRED            4 OUTER ITERATIONS 
       AND A TOTAL OF          7 INNER ITERATIONS.
    ------------------------------------------------

 NO OUTPUT CONTROL FOR STRESS PERIOD   20   TIME STEP   28
 
 SOLVING FOR HEAD 
                                                   Max.-Head-Change                         Max.-Flux-Residual
  Residual-Control   Outer-Iter.   Inner-Iter.     Column Row Layer    Maximum-Head-Change  Column Row Layer    Maximum-Flux-Residual          L2-NORM 
          0                 1           2             4    7     1      -0.1682798155E+00       4    7    1        -0.8806963597E+01      0.2055188615E+02
          0                 2           2             4    7     1       0.1636876287E-01       4    7    1         0.8806781205E+00      0.2055044030E+01
          0                 3           2             4    7     1      -0.1114654751E-02       4    7    1        -0.6164766763E-01      0.1438539716E+00
          0                 4           1             4    7     1       0.4435314302E-04       4    7    1         0.2521392320E-02      0.5884167986E-02

    ------------------------------------------------
       NWT REQUIRED            4 OUTER ITERATIONS 
       AND A TOTAL OF          7 INNER ITERATIONS.
    ------------------------------------------------

 NO OUTPUT CONTROL FOR STRESS PERIOD   20   TIME STEP   29
 
 SOLVING FOR HEAD 
                                                   Max.-Head-Change                         Max.-Flux-Residual
  Residual-Control   Outer-Iter.   Inner-Iter.     Column Row Layer    Maximum-Head-Change  Column Row Layer    Maximum-Flux-Residual          L2-NORM 
          0                 1           2             4    7     1      -0.1671408185E+00       4    7    1        -0.8750314060E+01      0.2023704771E+02
          0                 2           2             4    7     1       0.1625795265E-01       4    7    1         0.8750120198E+00      0.2023562564E+01
          0                 3           2             4    7     1      -0.1107109151E-02       4    7    1        -0.6125105126E-01      0.1416492607E+00
          0                 4           1             4    7     1       0.4405289611E-04       4    7    1         0.2505170637E-02      0.5793941025E-02

    ------------------------------------------------
       NWT REQUIRED            4 OUTER ITERATIONS 
       AND A TOTAL OF          7 INNER ITERATIONS.
    ------------------------------------------------

 NO OUTPUT CONTROL FOR STRESS PERIOD   20   TIME STEP   30



 STREAM LISTING     PERIOD     20   STEP       30

 LAYER ROW COL. STREAM  RCH.  FLOW INTO     FLOW TO   FLOW OUT OF   OVRLND.     DIRECT     STREAM       STREAM     STREAM     STREAM   STREAMBED  STREAMBED
                SEG.NO.  NO.  STRM. RCH.    AQUIFER    STRM. RCH.    RUNOFF     PRECIP       ET          HEAD       DEPTH      WIDTH   CONDCTNC.   GRADIENT

   1    1    1     1     1    5.0429E+01  3.3757E-01   5.0092E+01  0.000E+00  0.000E+00  0.000E+00  1.09445E+03  1.403E+00  1.704E+01  7.666E-02  1.468E+00
   1    2    2     1     2    5.0092E+01  5.2280E-01   4.9569E+01  0.000E+00  0.000E+00  0.000E+00  1.08946E+03  1.399E+00  1.698E+01  1.188E-01  1.466E+00
   1    3    3     1     3    4.9569E+01  4.4614E-01   4.9123E+01  0.000E+00  0.000E+00  0.000E+00  1.08381E+03  1.396E+00  1.692E+01  1.015E-01  1.465E+00
   1    3    4     1     4    4.9123E+01  4.1106E-01   4.8712E+01  0.000E+00  0.000E+00  0.000E+00  1.07880E+03  1.393E+00  1.686E+01  9.357E-02  1.464E+00
   1    4    5     2     1    4.6712E+01  3.7073E-01   4.6341E+01  0.000E+00  0.000E+00  0.000E+00  1.07369E+03  1.753E+00  1.200E+01  7.800E-02  1.584E+00
   1    5    6     2     2    4.6341E+01  2.8473E-01   4.6056E+01  0.000E+00  0.000E+00  0.000E+00  1.06825E+03  1.746E+00  1.200E+01  6.000E-02  1.582E+00
   1    6    6     2     3    4.6056E+01  2.8434E-01   4.5772E+01  0.000E+00  0.000E+00  0.000E+00  1.06353E+03  1.739E+00  1.200E+01  6.000E-02  1.580E+00
   1    7    6     2     4    4.5772E+01  2.8395E-01   4.5488E+01  0.000E+00  0.000E+00  0.000E+00  1.05881E+03  1.733E+00  1.200E+01  6.000E-02  1.578E+00
   1    8    6     2     5    4.5488E+01  2.8357E-01   4.5204E+01  0.000E+00  0.000E+00  0.000E+00  1.05408E+03  1.726E+00  1.200E+01  6.000E-02  1.575E+00
   1    3    5     3     1    2.0000E+00  2.8252E-01   1.7175E+00  0.000E+00  0.000E+00  0.000E+00  1.07555E+03  1.909E+00  9.636E+00  7.227E-02  1.955E+00
   1    3    6     3     2    1.7175E+00  2.4905E-01   1.4684E+00  0.000E+00  0.000E+00  0.000E+00  1.07264E+03  1.727E+00  8.909E+00  6.682E-02  1.864E+00
   1    3    7     3     3    1.4684E+00  1.9718E-01   1.2712E+00  0.000E+00  0.000E+00  0.000E+00  1.06987E+03  1.555E+00  8.218E+00  5.547E-02  1.777E+00
   1    4    8     3     4    1.2712E+00  2.2567E-01   1.0456E+00  0.000E+00  0.000E+00  0.000E+00  1.06682E+03  1.364E+00  7.455E+00  6.709E-02  1.682E+00
   1    5    8     3     5    1.0456E+00  1.5790E-01   8.8768E-01  0.000E+00  0.000E+00  0.000E+00  1.06362E+03  1.164E+00  6.655E+00  4.991E-02  1.582E+00
   1    6    8     3     6    8.8768E-01  5.5980E-02   8.3170E-01  0.000E+00  0.000E+00  0.000E+00  1.06158E+03  1.036E+00  6.145E+00  1.844E-02  1.518E+00
   1    5   10     4     1    1.0000E+01  9.0919E-02   9.9091E+00  0.000E+00  0.000E+00  0.000E+00  1.07836E+03  6.368E-01  1.000E+01  2.500E-02  1.212E+00
   1    5    9     4     2    9.9091E+00  1.8158E-01   9.7275E+00  0.000E+00  0.000E+00  0.000E+00  1.07154E+03  6.315E-01  1.000E+01  5.000E-02  1.211E+00
   1    6    8     4     3    9.7275E+00  1.2689E-01   9.6006E+00  0.000E+00  0.000E+00  0.000E+00  1.06381E+03  6.256E-01  1.000E+01  3.500E-02  1.209E+00
   1    6    8     5     1    1.0432E+01  2.2686E-01   1.0205E+01  0.000E+00  0.000E+00  0.000E+00  1.05868E+03  6.790E-01  1.542E+01  6.166E-02  1.226E+00
   1    7    7     5     2    1.0205E+01  2.7894E-01   9.9265E+00  0.000E+00  0.000E+00  0.000E+00  1.05417E+03  6.732E-01  1.519E+01  7.594E-02  1.224E+00
   1    8    7     5     3    9.9265E+00  1.9221E-01   9.7343E+00  0.000E+00  0.000E+00  0.000E+00  1.04992E+03  6.676E-01  1.497E+01  5.241E-02  1.223E+00
   1    8    6     5     4    9.7343E+00  1.3577E-01   9.5985E+00  0.000E+00  0.000E+00  0.000E+00  1.04691E+03  6.637E-01  1.482E+01  3.706E-02  1.221E+00
   1    9    6     6     1    5.4803E+01  2.9714E-01   5.4506E+01  0.000E+00  0.000E+00  0.000E+00  1.04468E+03  1.952E+00  1.200E+01  6.000E-02  1.651E+00
   1   10    7     6     2    5.4506E+01  2.9676E-01   5.4209E+01  0.000E+00  0.000E+00  0.000E+00  1.04013E+03  1.946E+00  1.200E+01  6.000E-02  1.649E+00
   1   11    7     6     3    5.4209E+01  2.9637E-01   5.3913E+01  0.000E+00  0.000E+00  0.000E+00  1.03558E+03  1.940E+00  1.200E+01  6.000E-02  1.647E+00
   1   12    7     6     4    5.3913E+01  2.9599E-01   5.3617E+01  0.000E+00  0.000E+00  0.000E+00  1.03102E+03  1.933E+00  1.200E+01  6.000E-02  1.644E+00
   1   13    7     6     5    5.3617E+01  1.8944E-02   5.3598E+01  0.000E+00  0.000E+00  0.000E+00  1.02784E+03  1.930E+00  1.200E+01  2.400E-02  2.631E-01
   1   14    9     7     1    1.5000E+02  1.3336E+00   1.4867E+02  0.000E+00  0.000E+00  0.000E+00  1.03987E+03  2.288E+00  5.529E+01  5.593E-01  7.948E-01
   1   13    8     7     2    1.4867E+02  1.8280E+00   1.4684E+02  0.000E+00  0.000E+00  0.000E+00  1.03478E+03  2.279E+00  5.526E+01  6.148E-01  9.912E-01
   1   13    7     7     3    1.4684E+02  1.4745E+00   1.4536E+02  0.000E+00  0.000E+00  0.000E+00  1.02969E+03  2.271E+00  5.522E+01  5.585E-01  8.801E-01
   1   13    6     8     1    1.9896E+02  1.0816E+00   1.9788E+02  0.000E+00  0.000E+00  0.000E+00  1.02500E+03  3.128E+00  4.536E+01  4.623E-01  7.800E-01
   1   13    5     8     2    1.9788E+02  3.8288E-01   1.9750E+02  0.000E+00  0.000E+00  0.000E+00  1.01875E+03  3.124E+00  4.530E+01  4.616E-01  2.765E-01
   1   13    4     8     3    1.9750E+02 -1.3586E+00   1.9886E+02  0.000E+00  0.000E+00  0.000E+00  1.01250E+03  3.127E+00  4.534E+01  4.620E+00 -9.801E-02
   1   13    3     8     4    1.9886E+02 -2.6512E+00   2.0151E+02  0.000E+00  0.000E+00  0.000E+00  1.00626E+03  3.139E+00  4.551E+01  4.638E+00 -1.905E-01
   1   13    2     8     5    2.0151E+02 -1.9929E+00   2.0350E+02  0.000E+00  0.000E+00  0.000E+00  1.00003E+03  3.152E+00  4.571E+01  4.658E+00 -1.426E-01
   1   13    1     8     6    2.0350E+02 -1.0906E+00   2.0459E+02  0.000E+00  0.000E+00  0.000E+00  9.95036E+02  3.161E+00  4.584E+01  2.803E+00 -1.297E-01





UNSATURATED ZONE PACKAGE VOLUMETRIC BUDGET FOR  TIME STEP    30 STRESS PERIOD   20
  ------------------------------------------------------------------------------



     CUMULATIVE VOLUMES      L**3       RATES FOR THIS TIME STEP      L**3/T
     ------------------                 ------------------------

           IN:                                      IN:
           ---                                      ---
        INFILTRATION =   317701385.0599          INFILTRATION =          60.8475

          OUT:                                     OUT:
          ----                                     ----
              UZF ET =   151199588.5795                UZF ET =           9.1884
        UZF RECHARGE =    10857739.8677          UZF RECHARGE =           0.0818

            IN - OUT =   155644056.6127              IN - OUT =          51.5773

          STORAGE:                                 STORAGE:
          --------                                 --------
      STORAGE CHANGE =   155734447.4924        STORAGE CHANGE =          51.5773

 PERCENT DISCREPANCY IS DIFFERENCE BETWEEN IN-OUT MINUS CHANGE IN STORAGE
 DIVIDED BY THE AVERAGE OF IN AND OUT TIMES 100

 PERCENT DISCREPANCY =          -0.01     PERCENT DISCREPANCY =           0.00






1
  VOLUMETRIC BUDGET FOR ENTIRE MODEL AT END OF TIME STEP   30, STRESS PERIOD  20
  ------------------------------------------------------------------------------

     CUMULATIVE VOLUMES      L**3       RATES FOR THIS TIME STEP      L**3/T
     ------------------                 ------------------------

           IN:                                      IN:
           ---                                      ---
               AWU WELLS =   275310720.0000                 AWU WELLS =          60.0000
      DIVERSION SEGMENTS =           0.0000        DIVERSION SEGMENTS =           0.0000
           GW IRRIGATION =           0.0000             GW IRRIGATION =           0.0000
           SW IRRIGATION =           0.0000             SW IRRIGATION =           0.0000
        SYSTEM LOSSES GW =           0.0000          SYSTEM LOSSES GW =           0.0000
        SYSTEM LOSSES SW =           0.0000          SYSTEM LOSSES SW =           0.0000

                TOTAL IN =   275310720.0000                  TOTAL IN =          60.0000

          OUT:                                     OUT:
          ----                                     ----
               AWU WELLS =           0.0000                 AWU WELLS =           0.0000
      DIVERSION SEGMENTS =           0.0000        DIVERSION SEGMENTS =           0.0000
           GW IRRIGATION =   275310720.0000             GW IRRIGATION =          60.0000
           SW IRRIGATION =           0.0000             SW IRRIGATION =           0.0000
        SYSTEM LOSSES GW =           0.0000          SYSTEM LOSSES GW =           0.0000
        SYSTEM LOSSES SW =           0.0000          SYSTEM LOSSES SW =           0.0000

               TOTAL OUT =   275310720.0000                 TOTAL OUT =          60.0000

                IN - OUT =           0.0000                  IN - OUT =           0.0000

     PERCENT DISCREPANCY =           0.00         PERCENT DISCREPANCY =           0.00



1
  VOLUMETRIC BUDGET FOR ENTIRE MODEL AT END OF TIME STEP   30, STRESS PERIOD  20
  ------------------------------------------------------------------------------

     CUMULATIVE VOLUMES      L**3       RATES FOR THIS TIME STEP      L**3/T
     ------------------                 ------------------------

           IN:                                      IN:
           ---                                      ---
             STORAGE     =   436107104.0000               STORAGE     =          60.4614
       CONSTANT HEAD     =           0.0000         CONSTANT HEAD     =           0.0000
     HEAD DEP BOUNDS     =    14287961.0000       HEAD DEP BOUNDS     =           0.2856
      STREAM LEAKAGE     =   636812160.0000        STREAM LEAKAGE     =          12.9322
        UZF RECHARGE     =    10857740.0000          UZF RECHARGE     =       8.1831E-02
               GW ET     =           0.0000                 GW ET     =           0.0000
     SURFACE LEAKAGE     =           0.0000       SURFACE LEAKAGE     =           0.0000
           AWU WELLS     =           0.0000             AWU WELLS     =           0.0000

                TOTAL IN =  1098064896.0000                  TOTAL IN =          73.7610

          OUT:                                     OUT:
          ----                                     ----
             STORAGE     =   249002624.0000               STORAGE     =           0.5016
       CONSTANT HEAD     =           0.0000         CONSTANT HEAD     =           0.0000
     HEAD DEP BOUNDS     =    14557812.0000       HEAD DEP BOUNDS     =           0.2822
      STREAM LEAKAGE     =   475674080.0000        STREAM LEAKAGE     =           7.0932
        UZF RECHARGE     =           0.0000          UZF RECHARGE     =           0.0000
               GW ET     =    83527104.0000                 GW ET     =           5.8843
     SURFACE LEAKAGE     =           0.0000       SURFACE LEAKAGE     =           0.0000
           AWU WELLS     =   275310720.0000             AWU WELLS     =          60.0000

               TOTAL OUT =  1098072320.0000                 TOTAL OUT =          73.7613

                IN - OUT =       -7424.0000                  IN - OUT =      -2.0599E-04

     PERCENT DISCREPANCY =          -0.00         PERCENT DISCREPANCY =          -0.00






         TIME SUMMARY AT END OF TIME STEP   30 IN STRESS PERIOD   20
                    SECONDS     MINUTES      HOURS       DAYS        YEARS
                    -----------------------------------------------------------
   TIME STEP LENGTH  87600.      1460.0      24.333      1.0139     2.77588E-03
 STRESS PERIOD TIME 2.62800E+06  43800.      730.00      30.417     8.32763E-02
         TOTAL TIME 5.00184E+07 8.33640E+05  13894.      578.92      1.5850    
1
1
                            STRESS PERIOD NO.   21, LENGTH =   2628000.    
                            -----------------------------------------------

                              NUMBER OF TIME STEPS =    30

                               MULTIPLIER FOR DELT =     1.000

                            INITIAL TIME STEP SIZE =   87600.00    

 REUSING NON-PARAMETER GHB CELLS FROM LAST STRESS PERIOD

      2 GHB CELLS

 REUSING STREAM SEGMENT DATA FROM LAST STRESS PERIOD



            AREAL INFILTRATION RATE
 READING ON UNIT   19 WITH FORMAT: (10F4.0)            

            1           2           3           4           5           6           7           8           9          10
 ........................................................................................................................
   1   1.0000E-10  2.0000E-10   0.000       0.000       0.000       0.000       0.000       0.000       0.000       0.000    
   2   2.0000E-10  1.0000E-10  2.0000E-10   0.000       0.000      8.0000E-10  8.0000E-10  5.0000E-10   0.000       0.000    
   3    0.000      5.0000E-10  1.0000E-10  1.0000E-10  8.0000E-10  8.0000E-10  5.0000E-10  5.0000E-10   0.000       0.000    
   4   8.0000E-10  5.0000E-10  1.0000E-10  1.0000E-10  1.0000E-10  1.0000E-10  1.0000E-10  1.0000E-10  2.0000E-10   0.000    
   5   8.0000E-10  5.0000E-10  1.0000E-10  1.0000E-10  1.0000E-10  1.0000E-10  1.0000E-10  1.0000E-10  1.0000E-10  1.0000E-10
   6   8.0000E-10  5.0000E-10  5.0000E-10  2.0000E-10  2.0000E-10  1.0000E-10  1.0000E-10  1.0000E-10  1.0000E-10  5.0000E-10
   7   8.0000E-10  5.0000E-10  5.0000E-10  2.0000E-10  2.0000E-10  1.0000E-10  1.0000E-10  2.0000E-10  2.0000E-10   0.000    
   8    0.000      5.0000E-10  5.0000E-10  2.0000E-10  2.0000E-10  1.0000E-10  1.0000E-10  2.0000E-10  5.0000E-10   0.000    
   9    0.000      5.0000E-10  5.0000E-10  2.0000E-10  2.0000E-10  1.0000E-10  1.0000E-10  2.0000E-10  5.0000E-10   0.000    
  10    0.000      5.0000E-10  5.0000E-10  2.0000E-10  2.0000E-10  1.0000E-10  1.0000E-10  2.0000E-10  5.0000E-10  8.0000E-10
  11    0.000      1.0000E-10  1.0000E-10  1.0000E-10  1.0000E-10  1.0000E-10  1.0000E-10  2.0000E-10  5.0000E-10   0.000    
  12   1.0000E-10  1.0000E-10  1.0000E-10  1.0000E-10  1.0000E-10  1.0000E-10  1.0000E-10  1.0000E-10  2.0000E-10   0.000    
  13   1.0000E-10  1.0000E-10  2.0000E-10  2.0000E-10  2.0000E-10  2.0000E-10  2.0000E-10  1.0000E-10  1.0000E-10   0.000    
  14    0.000      2.0000E-10  5.0000E-10  5.0000E-10  5.0000E-10  5.0000E-10  5.0000E-10  2.0000E-10  1.0000E-10   0.000    
  15    0.000       0.000      8.0000E-10  8.0000E-10  8.0000E-10  8.0000E-10   0.000       0.000       0.000       0.000    

                  ET RATE =  8.500000E-08

 USING ET EXTINCTION DEPTH FROM PREVIOUS STRESS PERIOD. CURRENT PERIOD IS:      21

 USING EXTINCTION WATER CONTENT FROM PREVIOUS STRESS PERIOD. CURRENT PERIOD IS:      21

 PROCESSING AWU STRESS PERIOD DATA

 READING AWU STRESS PERIOD DATA

 READING IRRIGATION WELL

 END PROCESSING AWU STRESS PERIOD DATA OPTIONS
 
 SOLVING FOR HEAD 
                                                   Max.-Head-Change                         Max.-Flux-Residual
  Residual-Control   Outer-Iter.   Inner-Iter.     Column Row Layer    Maximum-Head-Change  Column Row Layer    Maximum-Flux-Residual          L2-NORM 
          0                 1           2             5    8     1       0.4377906286E-01       5    8    1         0.2390436052E+01      0.5742468591E+01
          0                 2           2             5    8     1      -0.4258487127E-02       5    8    1        -0.2390420842E+00      0.5723793961E+00
          0                 3           2             5    8     1       0.2899874001E-03       5    8    1         0.1673296752E-01      0.3992369219E-01
          0                 4           1             5    8     1      -0.1153886890E-04       5    8    1        -0.6843792480E-03      0.1625805317E-02

    ------------------------------------------------
       NWT REQUIRED            4 OUTER ITERATIONS 
       AND A TOTAL OF          7 INNER ITERATIONS.
    ------------------------------------------------

 NO OUTPUT CONTROL FOR STRESS PERIOD   21   TIME STEP    1
 
 SOLVING FOR HEAD 
                                                   Max.-Head-Change                         Max.-Flux-Residual
  Residual-Control   Outer-Iter.   Inner-Iter.     Column Row Layer    Maximum-Head-Change  Column Row Layer    Maximum-Flux-Residual          L2-NORM 
          0                 1           2             4    7     1      -0.1657444642E+00       4    7    1        -0.8677677581E+01      0.2012691320E+02
          0                 2           2             4    7     1       0.1612212504E-01       4    7    1         0.8677483397E+00      0.2012203013E+01
          0                 3           2             4    7     1      -0.1097859799E-02       4    7    1        -0.6074259375E-01      0.1408200678E+00
          0                 4           1             4    7     1       0.4368485539E-04       4    7    1         0.2484374691E-02      0.5757942446E-02

    ------------------------------------------------
       NWT REQUIRED            4 OUTER ITERATIONS 
       AND A TOTAL OF          7 INNER ITERATIONS.
    ------------------------------------------------

 NO OUTPUT CONTROL FOR STRESS PERIOD   21   TIME STEP    2
 
 SOLVING FOR HEAD 
                                                   Max.-Head-Change                         Max.-Flux-Residual
  Residual-Control   Outer-Iter.   Inner-Iter.     Column Row Layer    Maximum-Head-Change  Column Row Layer    Maximum-Flux-Residual          L2-NORM 
          0                 1           2             5    8     1       0.4523717413E-01       5    8    1         0.2469107778E+01      0.5869201805E+01
          0                 2           2             5    8     1      -0.4400319709E-02       5    8    1        -0.2469091265E+00      0.5855354125E+00
          0                 3           2             5    8     1       0.2996456915E-03       5    8    1         0.1728366194E-01      0.4088672171E-01
          0                 4           1             5    8     1      -0.1192318130E-04       5    8    1        -0.7069026794E-03      0.1667703805E-02

    ------------------------------------------------
       NWT REQUIRED            4 OUTER ITERATIONS 
       AND A TOTAL OF          7 INNER ITERATIONS.
    ------------------------------------------------

 NO OUTPUT CONTROL FOR STRESS PERIOD   21   TIME STEP    3
 
 SOLVING FOR HEAD 
                                                   Max.-Head-Change                         Max.-Flux-Residual
  Residual-Control   Outer-Iter.   Inner-Iter.     Column Row Layer    Maximum-Head-Change  Column Row Layer    Maximum-Flux-Residual          L2-NORM 
          0                 1           2             5    8     1       0.4314579382E-01       5    8    1         0.2352614688E+01      0.5644148222E+01
          0                 2           2             5    8     1      -0.4196887705E-02       5    8    1        -0.2352599759E+00      0.5631494710E+00
          0                 3           2             5    8     1       0.2857927042E-03       5    8    1         0.1646821955E-01      0.3933110523E-01
          0                 4           1             5    8     1      -0.1137195818E-04       5    8    1        -0.6735510512E-03      0.1605161674E-02

    ------------------------------------------------
       NWT REQUIRED            4 OUTER ITERATIONS 
       AND A TOTAL OF          7 INNER ITERATIONS.
    ------------------------------------------------

 NO OUTPUT CONTROL FOR STRESS PERIOD   21   TIME STEP    4
 
 SOLVING FOR HEAD 
                                                   Max.-Head-Change                         Max.-Flux-Residual
  Residual-Control   Outer-Iter.   Inner-Iter.     Column Row Layer    Maximum-Head-Change  Column Row Layer    Maximum-Flux-Residual          L2-NORM 
          0                 1           2             4    7     1      -0.3184615107E-01       4    7    1        -0.1679426261E+01      0.4031886775E+01
          0                 2           2             4    7     1       0.3100555035E-02       4    7    1         0.1680922874E+00      0.4018780207E+00
          0                 3           2             4    7     1      -0.2083946913E-03       4    7    1        -0.1161508583E-01      0.2775645392E-01
          0                 4           1             4    7     1       0.1095972780E-04       4    7    1         0.6264533793E-03      0.1421853683E-02

    ------------------------------------------------
       NWT REQUIRED            4 OUTER ITERATIONS 
       AND A TOTAL OF          7 INNER ITERATIONS.
    ------------------------------------------------

 NO OUTPUT CONTROL FOR STRESS PERIOD   21   TIME STEP    5
 
 SOLVING FOR HEAD 
                                                   Max.-Head-Change                         Max.-Flux-Residual
  Residual-Control   Outer-Iter.   Inner-Iter.     Column Row Layer    Maximum-Head-Change  Column Row Layer    Maximum-Flux-Residual          L2-NORM 
          0                 1           2             5    8     1       0.4103077231E-01       5    8    1         0.2234262797E+01      0.5413397842E+01
          0                 2           2             5    8     1      -0.3991155846E-02       5    8    1        -0.2234249305E+00      0.5403079739E+00
          0                 3           2             5    8     1       0.2717831075E-03       5    8    1         0.1563976466E-01      0.3775383966E-01
          0                 4           1             5    8     1      -0.1081450366E-04       5    8    1        -0.6396672256E-03      0.1541732808E-02

    ------------------------------------------------
       NWT REQUIRED            4 OUTER ITERATIONS 
       AND A TOTAL OF          7 INNER ITERATIONS.
    ------------------------------------------------

 NO OUTPUT CONTROL FOR STRESS PERIOD   21   TIME STEP    6
 
 SOLVING FOR HEAD 
                                                   Max.-Head-Change                         Max.-Flux-Residual
  Residual-Control   Outer-Iter.   Inner-Iter.     Column Row Layer    Maximum-Head-Change  Column Row Layer    Maximum-Flux-Residual          L2-NORM 
          0                 1           2             5    8     1       0.3922481715E-01       5    8    1         0.2133853544E+01      0.5221885855E+01
          0                 2           2             5    8     1      -0.3815487348E-02       5    8    1        -0.2133841230E+00      0.5212368116E+00
          0                 3           2             5    8     1       0.2598207168E-03       5    8    1         0.1493690670E-01      0.3642681090E-01
          0                 4           1             5    8     1      -0.1033850871E-04       5    8    1        -0.6109202811E-03      0.1488328174E-02

    ------------------------------------------------
       NWT REQUIRED            4 OUTER ITERATIONS 
       AND A TOTAL OF          7 INNER ITERATIONS.
    ------------------------------------------------

 NO OUTPUT CONTROL FOR STRESS PERIOD   21   TIME STEP    7
 
 SOLVING FOR HEAD 
                                                   Max.-Head-Change                         Max.-Flux-Residual
  Residual-Control   Outer-Iter.   Inner-Iter.     Column Row Layer    Maximum-Head-Change  Column Row Layer    Maximum-Flux-Residual          L2-NORM 
          0                 1           2             4    7     1      -0.1556461490E-01       4    7    1        -0.8240995591E+00      0.2676709381E+01
          0                 2           2             4    7     1       0.1516824021E-02       4    7    1         0.8256085986E-01      0.2661711105E+00
          0                 3           1             4    7     1      -0.1005482909E-03       4    7    1        -0.5627871556E-02      0.1837538098E-01
          0                 4           1             4    7     1       0.6668420523E-05       4    7    1         0.3815760572E-03      0.9635620114E-03

    ------------------------------------------------
       NWT REQUIRED            4 OUTER ITERATIONS 
       AND A TOTAL OF          6 INNER ITERATIONS.
    ------------------------------------------------

 NO OUTPUT CONTROL FOR STRESS PERIOD   21   TIME STEP    8
 
 SOLVING FOR HEAD 
                                                   Max.-Head-Change                         Max.-Flux-Residual
  Residual-Control   Outer-Iter.   Inner-Iter.     Column Row Layer    Maximum-Head-Change  Column Row Layer    Maximum-Flux-Residual          L2-NORM 
          0                 1           2             5    8     1       0.3717492433E-01       5    8    1         0.2019639860E+01      0.5001182150E+01
          0                 2           2             5    8     1      -0.3616090448E-02       5    8    1        -0.2019628778E+00      0.4993187229E+00
          0                 3           2             5    8     1       0.2462425101E-03       5    8    1         0.1413741804E-01      0.3490684326E-01
          0                 4           1             5    8     1      -0.9798219255E-05       5    8    1        -0.5782211581E-03      0.1426868210E-02

    ------------------------------------------------
       NWT REQUIRED            4 OUTER ITERATIONS 
       AND A TOTAL OF          7 INNER ITERATIONS.
    ------------------------------------------------

 NO OUTPUT CONTROL FOR STRESS PERIOD   21   TIME STEP    9
 
 SOLVING FOR HEAD 
                                                   Max.-Head-Change                         Max.-Flux-Residual
  Residual-Control   Outer-Iter.   Inner-Iter.     Column Row Layer    Maximum-Head-Change  Column Row Layer    Maximum-Flux-Residual          L2-NORM 
          0                 1           2             5    6     1       0.3567085346E-01       5    8    1         0.1933329460E+01      0.4837316455E+01
          0                 2           2             5    6     1      -0.3469785799E-02       5    8    1        -0.1933319261E+00      0.4829848741E+00
          0                 3           2             5    6     1       0.2362797016E-03       5    8    1         0.1353325032E-01      0.3376935091E-01
          0                 4           1             5    6     1      -0.9401768153E-05       5    8    1        -0.5535106679E-03      0.1380862963E-02

    ------------------------------------------------
       NWT REQUIRED            4 OUTER ITERATIONS 
       AND A TOTAL OF          7 INNER ITERATIONS.
    ------------------------------------------------

 NO OUTPUT CONTROL FOR STRESS PERIOD   21   TIME STEP   10
 
 SOLVING FOR HEAD 
                                                   Max.-Head-Change                         Max.-Flux-Residual
  Residual-Control   Outer-Iter.   Inner-Iter.     Column Row Layer    Maximum-Head-Change  Column Row Layer    Maximum-Flux-Residual          L2-NORM 
          0                 1           2             3    7     1      -0.1269286077E-01       6    7    1        -0.6640804416E+00      0.2316852286E+01
          0                 2           2             3    7     1       0.1234690968E-02       6    7    1         0.6640771209E-01      0.2304243154E+00
          0                 3           1             3    7     1      -0.8405447080E-04       6    7    1        -0.4648544978E-02      0.1590720475E-01

    ------------------------------------------------
       NWT REQUIRED            3 OUTER ITERATIONS 
       AND A TOTAL OF          5 INNER ITERATIONS.
    ------------------------------------------------

 NO OUTPUT CONTROL FOR STRESS PERIOD   21   TIME STEP   11
 
 SOLVING FOR HEAD 
                                                   Max.-Head-Change                         Max.-Flux-Residual
  Residual-Control   Outer-Iter.   Inner-Iter.     Column Row Layer    Maximum-Head-Change  Column Row Layer    Maximum-Flux-Residual          L2-NORM 
          0                 1           2             5    6     1       0.3405404850E-01       5    6    1         0.1842367314E+01      0.4653357676E+01
          0                 2           2             5    6     1      -0.3312516221E-02       5    6    1        -0.1842357561E+00      0.4646913128E+00
          0                 3           2             5    6     1       0.2255702124E-03       5    6    1         0.1289651773E-01      0.3249853013E-01
          0                 4           1             5    6     1      -0.8975628636E-05       5    6    1        -0.5274682837E-03      0.1329475749E-02

    ------------------------------------------------
       NWT REQUIRED            4 OUTER ITERATIONS 
       AND A TOTAL OF          7 INNER ITERATIONS.
    ------------------------------------------------

 NO OUTPUT CONTROL FOR STRESS PERIOD   21   TIME STEP   12
 
 SOLVING FOR HEAD 
                                                   Max.-Head-Change                         Max.-Flux-Residual
  Residual-Control   Outer-Iter.   Inner-Iter.     Column Row Layer    Maximum-Head-Change  Column Row Layer    Maximum-Flux-Residual          L2-NORM 
          0                 1           2             5    6     1       0.3276434554E-01       5    6    1         0.1771222001E+01      0.4511296747E+01
          0                 2           2             5    6     1      -0.3187064390E-02       5    6    1        -0.1771213006E+00      0.4505190946E+00
          0                 3           2             5    6     1       0.2170273969E-03       5    6    1         0.1239850491E-01      0.3151004223E-01
          0                 4           1             5    6     1      -0.8635702192E-05       5    6    1        -0.5070995248E-03      0.1289192906E-02

    ------------------------------------------------
       NWT REQUIRED            4 OUTER ITERATIONS 
       AND A TOTAL OF          7 INNER ITERATIONS.
    ------------------------------------------------

 NO OUTPUT CONTROL FOR STRESS PERIOD   21   TIME STEP   13
 
 SOLVING FOR HEAD 
                                                   Max.-Head-Change                         Max.-Flux-Residual
  Residual-Control   Outer-Iter.   Inner-Iter.     Column Row Layer    Maximum-Head-Change  Column Row Layer    Maximum-Flux-Residual          L2-NORM 
          0                 1           2             3    7     1      -0.1181697849E-01       4    7    1        -0.5866373201E+00      0.2148822560E+01
          0                 2           2             3    7     1       0.1149491811E-02       4    7    1         0.5881495308E-01      0.2138868250E+00
          0                 3           1             3    7     1      -0.7825269298E-04       6    7    1        -0.3986910053E-02      0.1474130591E-01

    ------------------------------------------------
       NWT REQUIRED            3 OUTER ITERATIONS 
       AND A TOTAL OF          5 INNER ITERATIONS.
    ------------------------------------------------

 NO OUTPUT CONTROL FOR STRESS PERIOD   21   TIME STEP   14
 
 SOLVING FOR HEAD 
                                                   Max.-Head-Change                         Max.-Flux-Residual
  Residual-Control   Outer-Iter.   Inner-Iter.     Column Row Layer    Maximum-Head-Change  Column Row Layer    Maximum-Flux-Residual          L2-NORM 
          0                 1           2             5    6     1       0.3145292225E-01       5    6    1         0.1698828427E+01      0.4361338122E+01
          0                 2           2             5    6     1      -0.3059499817E-02       5    6    1        -0.1698820225E+00      0.4355925100E+00
          0                 3           2             5    6     1       0.2083407116E-03       5    6    1         0.1189175450E-01      0.3047193751E-01
          0                 4           1             5    6     1      -0.8290051835E-05       5    6    1        -0.4863734105E-03      0.1247158373E-02

    ------------------------------------------------
       NWT REQUIRED            4 OUTER ITERATIONS 
       AND A TOTAL OF          7 INNER ITERATIONS.
    ------------------------------------------------

 NO OUTPUT CONTROL FOR STRESS PERIOD   21   TIME STEP   15
 
 SOLVING FOR HEAD 
                                                   Max.-Head-Change                         Max.-Flux-Residual
  Residual-Control   Outer-Iter.   Inner-Iter.     Column Row Layer    Maximum-Head-Change  Column Row Layer    Maximum-Flux-Residual          L2-NORM 
          0                 1           2             5    6     1       0.3031101318E-01       5    6    1         0.1635922458E+01      0.4236482974E+01
          0                 2           2             5    6     1      -0.2948424939E-02       5    6    1        -0.1635914883E+00      0.4231269869E+00
          0                 3           2             5    8     1       0.2024869640E-03       5    8    1         0.1157599367E-01      0.2970218823E-01
          0                 4           1             5    8     1      -0.8057145476E-05       5    8    1        -0.4734587681E-03      0.1216036186E-02

    ------------------------------------------------
       NWT REQUIRED            4 OUTER ITERATIONS 
       AND A TOTAL OF          7 INNER ITERATIONS.
    ------------------------------------------------

 NO OUTPUT CONTROL FOR STRESS PERIOD   21   TIME STEP   16
 
 SOLVING FOR HEAD 
                                                   Max.-Head-Change                         Max.-Flux-Residual
  Residual-Control   Outer-Iter.   Inner-Iter.     Column Row Layer    Maximum-Head-Change  Column Row Layer    Maximum-Flux-Residual          L2-NORM 
          0                 1           2             4    7     1      -0.1108745846E-01       4    7    1        -0.5799004215E+00      0.2078378247E+01
          0                 2           2             4    7     1       0.1081324122E-02       4    7    1         0.5814131915E-01      0.2070670382E+00
          0                 3           1             3    7     1      -0.7268249144E-04       4    7    1        -0.3918499438E-02      0.1424531976E-01

    ------------------------------------------------
       NWT REQUIRED            3 OUTER ITERATIONS 
       AND A TOTAL OF          5 INNER ITERATIONS.
    ------------------------------------------------

 NO OUTPUT CONTROL FOR STRESS PERIOD   21   TIME STEP   17
 
 SOLVING FOR HEAD 
                                                   Max.-Head-Change                         Max.-Flux-Residual
  Residual-Control   Outer-Iter.   Inner-Iter.     Column Row Layer    Maximum-Head-Change  Column Row Layer    Maximum-Flux-Residual          L2-NORM 
          0                 1           2             5    7     1       0.2928939433E-01       5    6    1         0.1578130274E+01      0.4114271171E+01
          0                 2           2             5    7     1      -0.2848636997E-02       5    6    1        -0.1578123325E+00      0.4101570877E+00
          0                 3           2             5    7     1       0.1939816580E-03       5    6    1         0.1104687462E-01      0.2869886291E-01
          0                 4           1             5    7     1      -0.7718714079E-05       5    6    1        -0.4518177636E-03      0.1175150380E-02

    ------------------------------------------------
       NWT REQUIRED            4 OUTER ITERATIONS 
       AND A TOTAL OF          7 INNER ITERATIONS.
    ------------------------------------------------

 NO OUTPUT CONTROL FOR STRESS PERIOD   21   TIME STEP   18
 
 SOLVING FOR HEAD 
                                                   Max.-Head-Change                         Max.-Flux-Residual
  Residual-Control   Outer-Iter.   Inner-Iter.     Column Row Layer    Maximum-Head-Change  Column Row Layer    Maximum-Flux-Residual          L2-NORM 
          0                 1           2             5    7     1       0.2871195164E-01       5    7    1         0.1523408372E+01      0.4003787692E+01
          0                 2           2             5    7     1      -0.2792886888E-02       5    7    1        -0.1523406040E+00      0.3999174636E+00
          0                 3           2             5    7     1       0.1901852732E-03       5    7    1         0.1066384909E-01      0.2798392671E-01
          0                 4           1             5    7     1      -0.7567652622E-05       5    7    1        -0.4361520173E-03      0.1146098474E-02

    ------------------------------------------------
       NWT REQUIRED            4 OUTER ITERATIONS 
       AND A TOTAL OF          7 INNER ITERATIONS.
    ------------------------------------------------

 NO OUTPUT CONTROL FOR STRESS PERIOD   21   TIME STEP   19
 
 SOLVING FOR HEAD 
                                                   Max.-Head-Change                         Max.-Flux-Residual
  Residual-Control   Outer-Iter.   Inner-Iter.     Column Row Layer    Maximum-Head-Change  Column Row Layer    Maximum-Flux-Residual          L2-NORM 
          0                 1           2             4    7     1      -0.1129026513E-01       4    7    1        -0.5883441584E+00      0.2066570830E+01
          0                 2           2             4    7     1       0.1101052357E-02       4    7    1         0.5898574108E-01      0.2060587252E+00
          0                 3           1             4    7     1      -0.7223571727E-04       4    7    1        -0.3977608525E-02      0.1415582368E-01

    ------------------------------------------------
       NWT REQUIRED            3 OUTER ITERATIONS 
       AND A TOTAL OF          5 INNER ITERATIONS.
    ------------------------------------------------

 NO OUTPUT CONTROL FOR STRESS PERIOD   21   TIME STEP   20
 
 SOLVING FOR HEAD 
                                                   Max.-Head-Change                         Max.-Flux-Residual
  Residual-Control   Outer-Iter.   Inner-Iter.     Column Row Layer    Maximum-Head-Change  Column Row Layer    Maximum-Flux-Residual          L2-NORM 
          0                 1           2             5    7     1       0.2816124674E-01       5    7    1         0.1493946664E+01      0.3904244169E+01
          0                 2           2             5    7     1      -0.2739319174E-02       5    7    1        -0.1493944935E+00      0.3899934555E+00
          0                 3           2             5    7     1       0.1865375022E-03       5    7    1         0.1045762071E-01      0.2729253369E-01
          0                 4           1             5    7     1      -0.7422505154E-05       5    7    1        -0.4277172818E-03      0.1118078374E-02

    ------------------------------------------------
       NWT REQUIRED            4 OUTER ITERATIONS 
       AND A TOTAL OF          7 INNER ITERATIONS.
    ------------------------------------------------

 NO OUTPUT CONTROL FOR STRESS PERIOD   21   TIME STEP   21
 
 SOLVING FOR HEAD 
                                                   Max.-Head-Change                         Max.-Flux-Residual
  Residual-Control   Outer-Iter.   Inner-Iter.     Column Row Layer    Maximum-Head-Change  Column Row Layer    Maximum-Flux-Residual          L2-NORM 
          0                 1           2             4    7     1       0.2764999578E-01       5    7    1         0.1464707893E+01      0.3804800636E+01
          0                 2           2             4    7     1      -0.2689591307E-02       5    7    1        -0.1464706801E+00      0.3800559780E+00
          0                 3           2             4    7     1       0.1831511863E-03       5    7    1         0.1025295308E-01      0.2659820753E-01
          0                 4           1             4    7     1      -0.7287757278E-05       5    7    1        -0.4193463587E-03      0.1089817651E-02

    ------------------------------------------------
       NWT REQUIRED            4 OUTER ITERATIONS 
       AND A TOTAL OF          7 INNER ITERATIONS.
    ------------------------------------------------

 NO OUTPUT CONTROL FOR STRESS PERIOD   21   TIME STEP   22
 
 SOLVING FOR HEAD 
                                                   Max.-Head-Change                         Max.-Flux-Residual
  Residual-Control   Outer-Iter.   Inner-Iter.     Column Row Layer    Maximum-Head-Change  Column Row Layer    Maximum-Flux-Residual          L2-NORM 
          0                 1           2             5    8     1      -0.1275656416E-01       5    8    1        -0.6770902008E+00      0.2089544765E+01
          0                 2           2             5    8     1       0.1243610248E-02       5    8    1         0.6786003897E-01      0.2084886925E+00
          0                 3           1             5    8     1      -0.8201023228E-04       5    8    1        -0.4598812568E-02      0.1430950975E-01

    ------------------------------------------------
       NWT REQUIRED            3 OUTER ITERATIONS 
       AND A TOTAL OF          5 INNER ITERATIONS.
    ------------------------------------------------

 NO OUTPUT CONTROL FOR STRESS PERIOD   21   TIME STEP   23
 
 SOLVING FOR HEAD 
                                                   Max.-Head-Change                         Max.-Flux-Residual
  Residual-Control   Outer-Iter.   Inner-Iter.     Column Row Layer    Maximum-Head-Change  Column Row Layer    Maximum-Flux-Residual          L2-NORM 
          0                 1           2             4    7     1       0.2745312584E-01       5    7    1         0.1437975389E+01      0.3722712148E+01
          0                 2           2             4    7     1      -0.2670442457E-02       5    7    1        -0.1437974673E+00      0.3718706027E+00
          0                 3           2             4    7     1       0.1818472124E-03       5    7    1         0.1006582774E-01      0.2602759228E-01
          0                 4           1             4    7     1      -0.7235870650E-05       5    7    1        -0.4116929217E-03      0.1066619283E-02

    ------------------------------------------------
       NWT REQUIRED            4 OUTER ITERATIONS 
       AND A TOTAL OF          7 INNER ITERATIONS.
    ------------------------------------------------

 NO OUTPUT CONTROL FOR STRESS PERIOD   21   TIME STEP   24
 
 SOLVING FOR HEAD 
                                                   Max.-Head-Change                         Max.-Flux-Residual
  Residual-Control   Outer-Iter.   Inner-Iter.     Column Row Layer    Maximum-Head-Change  Column Row Layer    Maximum-Flux-Residual          L2-NORM 
          0                 1           2             4    7     1       0.2724871591E-01       4    7    1         0.1427521573E+01      0.3632144346E+01
          0                 2           2             4    7     1      -0.2650559850E-02       4    7    1        -0.1427523319E+00      0.3628173822E+00
          0                 3           2             4    7     1       0.1804932722E-03       4    7    1         0.9992665908E-02      0.2539465262E-01
          0                 4           1             4    7     1      -0.7181996229E-05       4    7    1        -0.4087006214E-03      0.1041085727E-02

    ------------------------------------------------
       NWT REQUIRED            4 OUTER ITERATIONS 
       AND A TOTAL OF          7 INNER ITERATIONS.
    ------------------------------------------------

 NO OUTPUT CONTROL FOR STRESS PERIOD   21   TIME STEP   25
 
 SOLVING FOR HEAD 
                                                   Max.-Head-Change                         Max.-Flux-Residual
  Residual-Control   Outer-Iter.   Inner-Iter.     Column Row Layer    Maximum-Head-Change  Column Row Layer    Maximum-Flux-Residual          L2-NORM 
          0                 1           2             5    8     1      -0.1414180757E-01       5    8    1        -0.7531394575E+00      0.2132886052E+01
          0                 2           2             5    8     1       0.1378354826E-02       5    8    1         0.7546483755E-01      0.2129267194E+00
          0                 3           1             5    8     1      -0.9118586213E-04       5    8    1        -0.5131149898E-02      0.1460720986E-01

    ------------------------------------------------
       NWT REQUIRED            3 OUTER ITERATIONS 
       AND A TOTAL OF          5 INNER ITERATIONS.
    ------------------------------------------------

 NO OUTPUT CONTROL FOR STRESS PERIOD   21   TIME STEP   26
 
 SOLVING FOR HEAD 
                                                   Max.-Head-Change                         Max.-Flux-Residual
  Residual-Control   Outer-Iter.   Inner-Iter.     Column Row Layer    Maximum-Head-Change  Column Row Layer    Maximum-Flux-Residual          L2-NORM 
          0                 1           2             4    7     1       0.2701009562E-01       4    7    1         0.1415431011E+01      0.3564168980E+01
          0                 2           2             4    7     1      -0.2627349108E-02       4    7    1        -0.1415433108E+00      0.3560348022E+00
          0                 3           2             4    7     1       0.1789127017E-03       4    7    1         0.9908034056E-02      0.2492159058E-01
          0                 4           1             4    7     1      -0.7119103863E-05       4    7    1        -0.4052391746E-03      0.1021695069E-02

    ------------------------------------------------
       NWT REQUIRED            4 OUTER ITERATIONS 
       AND A TOTAL OF          7 INNER ITERATIONS.
    ------------------------------------------------

 NO OUTPUT CONTROL FOR STRESS PERIOD   21   TIME STEP   27
 
 SOLVING FOR HEAD 
                                                   Max.-Head-Change                         Max.-Flux-Residual
  Residual-Control   Outer-Iter.   Inner-Iter.     Column Row Layer    Maximum-Head-Change  Column Row Layer    Maximum-Flux-Residual          L2-NORM 
          0                 1           2             4    7     1       0.2678807543E-01       4    7    1         0.1404481913E+01      0.3480935281E+01
          0                 2           2             4    7     1      -0.2605753333E-02       4    7    1        -0.1404484517E+00      0.3477117430E+00
          0                 3           2             4    7     1       0.1774421021E-03       4    7    1         0.9831393411E-02      0.2434228453E-01
          0                 4           1             4    7     1      -0.7060587151E-05       4    7    1        -0.4021045575E-03      0.1006709343E-02

    ------------------------------------------------
       NWT REQUIRED            4 OUTER ITERATIONS 
       AND A TOTAL OF          7 INNER ITERATIONS.
    ------------------------------------------------

 NO OUTPUT CONTROL FOR STRESS PERIOD   21   TIME STEP   28
 
 SOLVING FOR HEAD 
                                                   Max.-Head-Change                         Max.-Flux-Residual
  Residual-Control   Outer-Iter.   Inner-Iter.     Column Row Layer    Maximum-Head-Change  Column Row Layer    Maximum-Flux-Residual          L2-NORM 
          0                 1           2             5    8     1      -0.1532826181E-01       5    8    1        -0.8181444932E+00      0.2187448475E+01
          0                 2           2             5    8     1       0.1493762844E-02       5    8    1         0.8196522833E-01      0.2184583148E+00
          0                 3           1             5    8     1      -0.9904474107E-04       5    8    1        -0.5586178530E-02      0.1498416444E-01

    ------------------------------------------------
       NWT REQUIRED            3 OUTER ITERATIONS 
       AND A TOTAL OF          5 INNER ITERATIONS.
    ------------------------------------------------

 NO OUTPUT CONTROL FOR STRESS PERIOD   21   TIME STEP   29
 
 SOLVING FOR HEAD 
                                                   Max.-Head-Change                         Max.-Flux-Residual
  Residual-Control   Outer-Iter.   Inner-Iter.     Column Row Layer    Maximum-Head-Change  Column Row Layer    Maximum-Flux-Residual          L2-NORM 
          0                 1           2             4    7     1       0.2284511236E-01       4    7    1         0.1198641499E+01      0.2989107761E+01
          0                 2           2             4    7     1      -0.5797246443E-02       4    7    1        -0.3118956621E+00      0.7533107355E+00
          0                 3           2             4    7     1      -0.3169259259E-02       5    8    1        -0.1712215237E+00      0.4184041106E+00
          0                 4           2             4    7     1      -0.3353222424E-02       4    7    1        -0.1801151652E+00      0.4410869288E+00
          0                 5           2             4    7     1      -0.3340343085E-02       5    8    1        -0.1794225839E+00      0.4394906162E+00
          0                 6           2             4    7     1      -0.3341243963E-02       4    7    1        -0.1794663155E+00      0.4395977560E+00
          0                 7           2             4    7     1      -0.3341181033E-02       4    7    1        -0.1794612410E+00      0.4395858605E+00
          0                 8           2             4    7     1      -0.3341185600E-02       4    7    1        -0.1794598018E+00      0.4395822977E+00
          0                 9           2             4    7     1      -0.3341185440E-02       4    7    1        -0.1794581080E+00      0.4395781515E+00
          0                10           2             4    7     1      -0.3341185611E-02       4    7    1        -0.1794564321E+00      0.4395740462E+00
                                                   Max.-Head-Change                         Max.-Flux-Residual
  Residual-Control   Outer-Iter.   Inner-Iter.     Column Row Layer    Maximum-Head-Change  Column Row Layer    Maximum-Flux-Residual          L2-NORM 
          0                11           2             4    7     1      -0.3341187978E-02       4    7    1        -0.1794548741E+00      0.4395702301E+00
          0                12           2             4    7     1      -0.3341187972E-02       4    7    1        -0.1794531888E+00      0.4395661019E+00
          0                13           2             4    7     1      -0.3341188133E-02       4    7    1        -0.1794515124E+00      0.4395619956E+00
          0                14           2             4    7     1      -0.3341188281E-02       4    7    1        -0.1794498354E+00      0.4395578879E+00
          0                15           2             4    7     1      -0.3341188431E-02       4    7    1        -0.1794481584E+00      0.4395537803E+00
          0                16           2             4    7     1      -0.3341188580E-02       4    7    1        -0.1794464815E+00      0.4395496729E+00
          0                17           2             4    7     1      -0.3341188729E-02       4    7    1        -0.1794448047E+00      0.4395455654E+00
          0                18           2             4    7     1      -0.3341188878E-02       4    7    1        -0.1794431278E+00      0.4395414581E+00
          0                19           2             4    7     1      -0.3341189028E-02       4    7    1        -0.1794414510E+00      0.4395373509E+00
          0                20           2             4    7     1      -0.3341189177E-02       4    7    1        -0.1794397743E+00      0.4395332437E+00
                                                   Max.-Head-Change                         Max.-Flux-Residual
  Residual-Control   Outer-Iter.   Inner-Iter.     Column Row Layer    Maximum-Head-Change  Column Row Layer    Maximum-Flux-Residual          L2-NORM 
          0                21           2             4    7     1      -0.3341189326E-02       4    7    1        -0.1794380975E+00      0.4395291366E+00
          0                22           2             4    7     1      -0.3341189476E-02       4    7    1        -0.1794364208E+00      0.4395250296E+00
          0                23           2             4    7     1      -0.3341189625E-02       4    7    1        -0.1794347442E+00      0.4395209226E+00
          0                24           2             4    7     1      -0.3341189774E-02       4    7    1        -0.1794330675E+00      0.4395168158E+00
          0                25           2             4    7     1      -0.3341189923E-02       4    7    1        -0.1794313909E+00      0.4395127090E+00
          0                26           2             4    7     1      -0.3341190073E-02       4    7    1        -0.1794297143E+00      0.4395086022E+00
          0                27           2             4    7     1      -0.3341190222E-02       4    7    1        -0.1794280378E+00      0.4395044956E+00
          0                28           2             4    7     1      -0.3341190371E-02       4    7    1        -0.1794263612E+00      0.4395003890E+00
          0                29           2             4    7     1      -0.3341190521E-02       4    7    1        -0.1794246848E+00      0.4394962826E+00
          0                30           2             4    7     1      -0.3341190670E-02       4    7    1        -0.1794230083E+00      0.4394921762E+00
                                                   Max.-Head-Change                         Max.-Flux-Residual
  Residual-Control   Outer-Iter.   Inner-Iter.     Column Row Layer    Maximum-Head-Change  Column Row Layer    Maximum-Flux-Residual          L2-NORM 
          0                31           2             4    7     1      -0.3341190819E-02       4    7    1        -0.1794213319E+00      0.4394880698E+00
          0                32           2             4    7     1      -0.3341190969E-02       4    7    1        -0.1794196555E+00      0.4394839636E+00
          0                33           2             4    7     1      -0.3341191118E-02       4    7    1        -0.1794179791E+00      0.4394798574E+00
          0                34           2             4    7     1      -0.3341191268E-02       4    7    1        -0.1794163028E+00      0.4394757513E+00
          0                35           2             4    7     1      -0.3341191416E-02       4    7    1        -0.1794146265E+00      0.4394716452E+00
          0                36           2             4    7     1      -0.3341191566E-02       4    7    1        -0.1794129502E+00      0.4394675393E+00
          0                37           2             4    7     1      -0.3341191715E-02       4    7    1        -0.1794112740E+00      0.4394634334E+00
          0                38           2             4    7     1      -0.3341191865E-02       4    7    1        -0.1794095978E+00      0.4394593277E+00
          0                39           2             4    7     1      -0.3341192014E-02       4    7    1        -0.1794079216E+00      0.4394552219E+00
          0                40           2             4    7     1      -0.3341192162E-02       4    7    1        -0.1794062455E+00      0.4394511162E+00
                                                   Max.-Head-Change                         Max.-Flux-Residual
  Residual-Control   Outer-Iter.   Inner-Iter.     Column Row Layer    Maximum-Head-Change  Column Row Layer    Maximum-Flux-Residual          L2-NORM 
          0                41           2             4    7     1      -0.3341192296E-02       4    7    1        -0.1794045694E+00      0.4394470020E+00
          0                42           2             4    7     1      -0.3341192436E-02       4    7    1        -0.1794028933E+00      0.4394428971E+00
          0                43           2             4    7     1      -0.3341183695E-02       4    7    1        -0.1794007404E+00      0.4394376237E+00
          0                44           2             4    7     1      -0.3341184459E-02       4    7    1        -0.1793990979E+00      0.4394336006E+00
          0                45           2             4    7     1      -0.3341184555E-02       4    7    1        -0.1793974196E+00      0.4394294895E+00
          0                46           2             4    7     1      -0.3341184697E-02       4    7    1        -0.1793957438E+00      0.4394253848E+00
          0                47           2             4    7     1      -0.3341184837E-02       4    7    1        -0.1793940679E+00      0.4394212796E+00
          0                48           2             4    7     1      -0.3341184976E-02       4    7    1        -0.1793923920E+00      0.4394171746E+00
          0                49           2             4    7     1      -0.3341185115E-02       4    7    1        -0.1793907161E+00      0.4394130696E+00
          0                50           2             4    7     1      -0.3341185255E-02       4    7    1        -0.1793890403E+00      0.4394089648E+00
                                                   Max.-Head-Change                         Max.-Flux-Residual
  Residual-Control   Outer-Iter.   Inner-Iter.     Column Row Layer    Maximum-Head-Change  Column Row Layer    Maximum-Flux-Residual          L2-NORM 
          0                51           2             4    7     1      -0.3341185395E-02       4    7    1        -0.1793873645E+00      0.4394048600E+00
          0                52           2             4    7     1      -0.3341185533E-02       4    7    1        -0.1793856887E+00      0.4394007552E+00
          0                53           1             4    7     1      -0.3216823830E-04       4    7    1        -0.1726885630E-02      0.4231775531E-02

    ------------------------------------------------
       NWT REQUIRED           53 OUTER ITERATIONS 
       AND A TOTAL OF        105 INNER ITERATIONS.
    ------------------------------------------------

 NO OUTPUT CONTROL FOR STRESS PERIOD   21   TIME STEP   30



 STREAM LISTING     PERIOD     21   STEP       30

 LAYER ROW COL. STREAM  RCH.  FLOW INTO     FLOW TO   FLOW OUT OF   OVRLND.     DIRECT     STREAM       STREAM     STREAM     STREAM   STREAMBED  STREAMBED
                SEG.NO.  NO.  STRM. RCH.    AQUIFER    STRM. RCH.    RUNOFF     PRECIP       ET          HEAD       DEPTH      WIDTH   CONDCTNC.   GRADIENT

   1    1    1     1     1    3.7000E+01  2.9351E-01   3.6706E+01  0.000E+00  0.000E+00  0.000E+00  1.09436E+03  1.308E+00  1.514E+01  6.812E-02  1.436E+00
   1    2    2     1     2    3.6706E+01  4.5449E-01   3.6252E+01  0.000E+00  0.000E+00  0.000E+00  1.08936E+03  1.305E+00  1.508E+01  1.056E-01  1.435E+00
   1    3    3     1     3    3.6252E+01  3.8754E-01   3.5864E+01  0.000E+00  0.000E+00  0.000E+00  1.08372E+03  1.302E+00  1.501E+01  9.008E-02  1.434E+00
   1    3    4     1     4    3.5864E+01  3.5682E-01   3.5508E+01  0.000E+00  0.000E+00  0.000E+00  1.07871E+03  1.299E+00  1.495E+01  8.300E-02  1.433E+00
   1    4    5     2     1    3.3508E+01  3.4594E-01   3.3162E+01  0.000E+00  0.000E+00  0.000E+00  1.07337E+03  1.435E+00  1.200E+01  7.800E-02  1.478E+00
   1    5    6     2     2    3.3162E+01  2.6563E-01   3.2896E+01  0.000E+00  0.000E+00  0.000E+00  1.06794E+03  1.427E+00  1.200E+01  6.000E-02  1.476E+00
   1    6    6     2     3    3.2896E+01  2.6522E-01   3.2631E+01  0.000E+00  0.000E+00  0.000E+00  1.06321E+03  1.420E+00  1.200E+01  6.000E-02  1.473E+00
   1    7    6     2     4    3.2631E+01  2.6480E-01   3.2366E+01  0.000E+00  0.000E+00  0.000E+00  1.05849E+03  1.413E+00  1.200E+01  6.000E-02  1.471E+00
   1    8    6     2     5    3.2366E+01  2.6439E-01   3.2102E+01  0.000E+00  0.000E+00  0.000E+00  1.05377E+03  1.406E+00  1.200E+01  6.000E-02  1.469E+00
   1    3    5     3     1    2.0000E+00  2.8252E-01   1.7175E+00  0.000E+00  0.000E+00  0.000E+00  1.07555E+03  1.909E+00  9.636E+00  7.227E-02  1.955E+00
   1    3    6     3     2    1.7175E+00  2.4905E-01   1.4684E+00  0.000E+00  0.000E+00  0.000E+00  1.07264E+03  1.727E+00  8.909E+00  6.682E-02  1.864E+00
   1    3    7     3     3    1.4684E+00  1.9718E-01   1.2712E+00  0.000E+00  0.000E+00  0.000E+00  1.06987E+03  1.555E+00  8.218E+00  5.547E-02  1.777E+00
   1    4    8     3     4    1.2712E+00  2.2567E-01   1.0456E+00  0.000E+00  0.000E+00  0.000E+00  1.06682E+03  1.364E+00  7.455E+00  6.709E-02  1.682E+00
   1    5    8     3     5    1.0456E+00  1.5790E-01   8.8768E-01  0.000E+00  0.000E+00  0.000E+00  1.06362E+03  1.164E+00  6.655E+00  4.991E-02  1.582E+00
   1    6    8     3     6    8.8768E-01  5.5980E-02   8.3170E-01  0.000E+00  0.000E+00  0.000E+00  1.06158E+03  1.036E+00  6.145E+00  1.844E-02  1.518E+00
   1    5   10     4     1    1.0000E+01  9.0919E-02   9.9091E+00  0.000E+00  0.000E+00  0.000E+00  1.07836E+03  6.368E-01  1.000E+01  2.500E-02  1.212E+00
   1    5    9     4     2    9.9091E+00  1.8158E-01   9.7275E+00  0.000E+00  0.000E+00  0.000E+00  1.07154E+03  6.315E-01  1.000E+01  5.000E-02  1.211E+00
   1    6    8     4     3    9.7275E+00  1.2689E-01   9.6006E+00  0.000E+00  0.000E+00  0.000E+00  1.06381E+03  6.256E-01  1.000E+01  3.500E-02  1.209E+00
   1    6    8     5     1    1.0432E+01  2.2686E-01   1.0205E+01  0.000E+00  0.000E+00  0.000E+00  1.05868E+03  6.790E-01  1.542E+01  6.166E-02  1.226E+00
   1    7    7     5     2    1.0205E+01  2.7894E-01   9.9265E+00  0.000E+00  0.000E+00  0.000E+00  1.05417E+03  6.732E-01  1.519E+01  7.594E-02  1.224E+00
   1    8    7     5     3    9.9265E+00  1.9221E-01   9.7343E+00  0.000E+00  0.000E+00  0.000E+00  1.04992E+03  6.676E-01  1.497E+01  5.241E-02  1.223E+00
   1    8    6     5     4    9.7343E+00  1.3577E-01   9.5985E+00  0.000E+00  0.000E+00  0.000E+00  1.04691E+03  6.637E-01  1.482E+01  3.706E-02  1.221E+00
   1    9    6     6     1    4.1700E+01  2.7939E-01   4.1421E+01  0.000E+00  0.000E+00  0.000E+00  1.04438E+03  1.656E+00  1.200E+01  6.000E-02  1.552E+00
   1   10    7     6     2    4.1421E+01  2.7899E-01   4.1142E+01  0.000E+00  0.000E+00  0.000E+00  1.03983E+03  1.650E+00  1.200E+01  6.000E-02  1.550E+00
   1   11    7     6     3    4.1142E+01  2.7858E-01   4.0863E+01  0.000E+00  0.000E+00  0.000E+00  1.03528E+03  1.643E+00  1.200E+01  6.000E-02  1.548E+00
   1   12    7     6     4    4.0863E+01  2.7818E-01   4.0585E+01  0.000E+00  0.000E+00  0.000E+00  1.03073E+03  1.636E+00  1.200E+01  6.000E-02  1.545E+00
   1   13    7     6     5    4.0585E+01  1.3380E-02   4.0572E+01  0.000E+00  0.000E+00  0.000E+00  1.02754E+03  1.633E+00  1.200E+01  2.400E-02  1.858E-01
   1   14    9     7     1    1.5000E+02  1.3338E+00   1.4867E+02  0.000E+00  0.000E+00  0.000E+00  1.03987E+03  2.288E+00  5.529E+01  5.593E-01  7.949E-01
   1   13    8     7     2    1.4867E+02  1.8372E+00   1.4683E+02  0.000E+00  0.000E+00  0.000E+00  1.03478E+03  2.279E+00  5.526E+01  6.148E-01  9.961E-01
   1   13    7     7     3    1.4683E+02  1.5107E+00   1.4532E+02  0.000E+00  0.000E+00  0.000E+00  1.02969E+03  2.270E+00  5.522E+01  5.584E-01  9.018E-01
   1   13    6     8     1    1.8589E+02  1.0866E+00   1.8480E+02  0.000E+00  0.000E+00  0.000E+00  1.02492E+03  3.049E+00  4.422E+01  4.506E-01  8.039E-01
   1   13    5     8     2    1.8480E+02  4.4679E-01   1.8436E+02  0.000E+00  0.000E+00  0.000E+00  1.01867E+03  3.045E+00  4.415E+01  4.499E-01  3.310E-01
   1   13    4     8     3    1.8436E+02 -8.8552E-01   1.8524E+02  0.000E+00  0.000E+00  0.000E+00  1.01242E+03  3.046E+00  4.417E+01  4.501E+00 -6.558E-02
   1   13    3     8     4    1.8524E+02 -2.2080E+00   1.8745E+02  0.000E+00  0.000E+00  0.000E+00  1.00618E+03  3.056E+00  4.431E+01  4.515E+00 -1.630E-01
   1   13    2     8     5    1.8745E+02 -1.7210E+00   1.8917E+02  0.000E+00  0.000E+00  0.000E+00  9.99943E+02  3.068E+00  4.448E+01  4.533E+00 -1.266E-01
   1   13    1     8     6    1.8917E+02 -7.1450E-01   1.8989E+02  0.000E+00  0.000E+00  0.000E+00  9.94950E+02  3.075E+00  4.459E+01  2.726E+00 -8.736E-02





UNSATURATED ZONE PACKAGE VOLUMETRIC BUDGET FOR  TIME STEP    30 STRESS PERIOD   21
  ------------------------------------------------------------------------------



     CUMULATIVE VOLUMES      L**3       RATES FOR THIS TIME STEP      L**3/T
     ------------------                 ------------------------

           IN:                                      IN:
           ---                                      ---
        INFILTRATION =   340801929.3724          INFILTRATION =          60.8475

          OUT:                                     OUT:
          ----                                     ----
              UZF ET =   186325022.4408                UZF ET =          13.3538
        UZF RECHARGE =    11024148.3896          UZF RECHARGE =           0.0602

            IN - OUT =   143452758.5420              IN - OUT =          47.4336

          STORAGE:                                 STORAGE:
          --------                                 --------
      STORAGE CHANGE =   143567004.4756        STORAGE CHANGE =          47.4336

 PERCENT DISCREPANCY IS DIFFERENCE BETWEEN IN-OUT MINUS CHANGE IN STORAGE
 DIVIDED BY THE AVERAGE OF IN AND OUT TIMES 100

 PERCENT DISCREPANCY =          -0.01     PERCENT DISCREPANCY =           0.00






1
  VOLUMETRIC BUDGET FOR ENTIRE MODEL AT END OF TIME STEP   30, STRESS PERIOD  21
  ------------------------------------------------------------------------------

     CUMULATIVE VOLUMES      L**3       RATES FOR THIS TIME STEP      L**3/T
     ------------------                 ------------------------

           IN:                                      IN:
           ---                                      ---
               AWU WELLS =   296184000.0000                 AWU WELLS =          60.0000
      DIVERSION SEGMENTS =           0.0000        DIVERSION SEGMENTS =           0.0000
           GW IRRIGATION =           0.0000             GW IRRIGATION =           0.0000
           SW IRRIGATION =           0.0000             SW IRRIGATION =           0.0000
        SYSTEM LOSSES GW =           0.0000          SYSTEM LOSSES GW =           0.0000
        SYSTEM LOSSES SW =           0.0000          SYSTEM LOSSES SW =           0.0000

                TOTAL IN =   296184000.0000                  TOTAL IN =          60.0000

          OUT:                                     OUT:
          ----                                     ----
               AWU WELLS =           0.0000                 AWU WELLS =           0.0000
      DIVERSION SEGMENTS =           0.0000        DIVERSION SEGMENTS =           0.0000
           GW IRRIGATION =   296184000.0000             GW IRRIGATION =          60.0000
           SW IRRIGATION =           0.0000             SW IRRIGATION =           0.0000
        SYSTEM LOSSES GW =           0.0000          SYSTEM LOSSES GW =           0.0000
        SYSTEM LOSSES SW =           0.0000          SYSTEM LOSSES SW =           0.0000

               TOTAL OUT =   296184000.0000                 TOTAL OUT =          60.0000

                IN - OUT =           0.0000                  IN - OUT =           0.0000

     PERCENT DISCREPANCY =           0.00         PERCENT DISCREPANCY =           0.00



1
  VOLUMETRIC BUDGET FOR ENTIRE MODEL AT END OF TIME STEP   30, STRESS PERIOD  21
  ------------------------------------------------------------------------------

     CUMULATIVE VOLUMES      L**3       RATES FOR THIS TIME STEP      L**3/T
     ------------------                 ------------------------

           IN:                                      IN:
           ---                                      ---
             STORAGE     =   478509344.0000               STORAGE     =          61.0132
       CONSTANT HEAD     =           0.0000         CONSTANT HEAD     =           0.0000
     HEAD DEP BOUNDS     =    15038553.0000       HEAD DEP BOUNDS     =           0.2856
      STREAM LEAKAGE     =   669791744.0000        STREAM LEAKAGE     =          12.6435
        UZF RECHARGE     =    11024149.0000          UZF RECHARGE     =       6.0176E-02
               GW ET     =           0.0000                 GW ET     =           0.0000
     SURFACE LEAKAGE     =           0.0000       SURFACE LEAKAGE     =           0.0000
           AWU WELLS     =           0.0000             AWU WELLS     =           0.0000

                TOTAL IN =  1174363776.0000                  TOTAL IN =          74.0025

          OUT:                                     OUT:
          ----                                     ----
             STORAGE     =   265949872.0000               STORAGE     =           0.3466
       CONSTANT HEAD     =           0.0000         CONSTANT HEAD     =           0.0000
     HEAD DEP BOUNDS     =    15285539.0000       HEAD DEP BOUNDS     =           0.2741
      STREAM LEAKAGE     =   492330784.0000        STREAM LEAKAGE     =           5.5289
        UZF RECHARGE     =           0.0000          UZF RECHARGE     =           0.0000
               GW ET     =   104618552.0000                 GW ET     =           7.8521
     SURFACE LEAKAGE     =           0.0000       SURFACE LEAKAGE     =           0.0000
           AWU WELLS     =   296184000.0000             AWU WELLS     =          60.0000

               TOTAL OUT =  1174368768.0000                 TOTAL OUT =          74.0018

                IN - OUT =       -4992.0000                  IN - OUT =       7.4768E-04

     PERCENT DISCREPANCY =          -0.00         PERCENT DISCREPANCY =           0.00






         TIME SUMMARY AT END OF TIME STEP   30 IN STRESS PERIOD   21
                    SECONDS     MINUTES      HOURS       DAYS        YEARS
                    -----------------------------------------------------------
   TIME STEP LENGTH  87600.      1460.0      24.333      1.0139     2.77588E-03
 STRESS PERIOD TIME 2.62800E+06  43800.      730.00      30.417     8.32763E-02
         TOTAL TIME 5.26464E+07 8.77440E+05  14624.      609.33      1.6683    
1
1
                            STRESS PERIOD NO.   22, LENGTH =   2628000.    
                            -----------------------------------------------

                              NUMBER OF TIME STEPS =    30

                               MULTIPLIER FOR DELT =     1.000

                            INITIAL TIME STEP SIZE =   87600.00    

 REUSING NON-PARAMETER GHB CELLS FROM LAST STRESS PERIOD

      2 GHB CELLS

 REUSING STREAM SEGMENT DATA FROM LAST STRESS PERIOD



            AREAL INFILTRATION RATE
 READING ON UNIT   19 WITH FORMAT: (10F4.0)            

            1           2           3           4           5           6           7           8           9          10
 ........................................................................................................................
   1   1.0000E-10  2.0000E-10   0.000       0.000       0.000       0.000       0.000       0.000       0.000       0.000    
   2   2.0000E-10  1.0000E-10  2.0000E-10   0.000       0.000      8.0000E-10  8.0000E-10  5.0000E-10   0.000       0.000    
   3    0.000      5.0000E-10  1.0000E-10  1.0000E-10  8.0000E-10  8.0000E-10  5.0000E-10  5.0000E-10   0.000       0.000    
   4   8.0000E-10  5.0000E-10  1.0000E-10  1.0000E-10  1.0000E-10  1.0000E-10  1.0000E-10  1.0000E-10  2.0000E-10   0.000    
   5   8.0000E-10  5.0000E-10  1.0000E-10  1.0000E-10  1.0000E-10  1.0000E-10  1.0000E-10  1.0000E-10  1.0000E-10  1.0000E-10
   6   8.0000E-10  5.0000E-10  5.0000E-10  2.0000E-10  2.0000E-10  1.0000E-10  1.0000E-10  1.0000E-10  1.0000E-10  5.0000E-10
   7   8.0000E-10  5.0000E-10  5.0000E-10  2.0000E-10  2.0000E-10  1.0000E-10  1.0000E-10  2.0000E-10  2.0000E-10   0.000    
   8    0.000      5.0000E-10  5.0000E-10  2.0000E-10  2.0000E-10  1.0000E-10  1.0000E-10  2.0000E-10  5.0000E-10   0.000    
   9    0.000      5.0000E-10  5.0000E-10  2.0000E-10  2.0000E-10  1.0000E-10  1.0000E-10  2.0000E-10  5.0000E-10   0.000    
  10    0.000      5.0000E-10  5.0000E-10  2.0000E-10  2.0000E-10  1.0000E-10  1.0000E-10  2.0000E-10  5.0000E-10  8.0000E-10
  11    0.000      1.0000E-10  1.0000E-10  1.0000E-10  1.0000E-10  1.0000E-10  1.0000E-10  2.0000E-10  5.0000E-10   0.000    
  12   1.0000E-10  1.0000E-10  1.0000E-10  1.0000E-10  1.0000E-10  1.0000E-10  1.0000E-10  1.0000E-10  2.0000E-10   0.000    
  13   1.0000E-10  1.0000E-10  2.0000E-10  2.0000E-10  2.0000E-10  2.0000E-10  2.0000E-10  1.0000E-10  1.0000E-10   0.000    
  14    0.000      2.0000E-10  5.0000E-10  5.0000E-10  5.0000E-10  5.0000E-10  5.0000E-10  2.0000E-10  1.0000E-10   0.000    
  15    0.000       0.000      8.0000E-10  8.0000E-10  8.0000E-10  8.0000E-10   0.000       0.000       0.000       0.000    

                  ET RATE =  2.500000E-08

 USING ET EXTINCTION DEPTH FROM PREVIOUS STRESS PERIOD. CURRENT PERIOD IS:      22

 USING EXTINCTION WATER CONTENT FROM PREVIOUS STRESS PERIOD. CURRENT PERIOD IS:      22

 PROCESSING AWU STRESS PERIOD DATA

 READING AWU STRESS PERIOD DATA

 READING IRRIGATION WELL

 END PROCESSING AWU STRESS PERIOD DATA OPTIONS
 
 SOLVING FOR HEAD 
                                                   Max.-Head-Change                         Max.-Flux-Residual
  Residual-Control   Outer-Iter.   Inner-Iter.     Column Row Layer    Maximum-Head-Change  Column Row Layer    Maximum-Flux-Residual          L2-NORM 
          0                 1           2             4    7     1      -0.1640937957E+00       4    7    1        -0.8572936304E+01      0.2103281037E+02
          0                 2           2             4    7     1       0.1596172777E-01       4    7    1         0.8572824883E+00      0.2105405528E+01
          0                 3           2             4    7     1      -0.1086936144E-02       4    7    1        -0.6000990543E-01      0.1473432166E+00
          0                 4           1             4    7     1       0.4325019839E-04       4    7    1         0.2454408059E-02      0.6024667539E-02

    ------------------------------------------------
       NWT REQUIRED            4 OUTER ITERATIONS 
       AND A TOTAL OF          7 INNER ITERATIONS.
    ------------------------------------------------

 NO OUTPUT CONTROL FOR STRESS PERIOD   22   TIME STEP    1
 
 SOLVING FOR HEAD 
                                                   Max.-Head-Change                         Max.-Flux-Residual
  Residual-Control   Outer-Iter.   Inner-Iter.     Column Row Layer    Maximum-Head-Change  Column Row Layer    Maximum-Flux-Residual          L2-NORM 
          0                 1           2             4    7     1      -0.1632495769E+00       4    7    1        -0.8532624112E+01      0.2064698959E+02
          0                 2           2             4    7     1       0.1587953816E-01       4    7    1         0.8532496243E+00      0.2064408261E+01
          0                 3           2             4    7     1      -0.1081339578E-02       4    7    1        -0.5972762050E-01      0.1444897760E+00
          0                 4           1             4    7     1       0.4302750488E-04       4    7    1         0.2442862525E-02      0.5908855097E-02

    ------------------------------------------------
       NWT REQUIRED            4 OUTER ITERATIONS 
       AND A TOTAL OF          7 INNER ITERATIONS.
    ------------------------------------------------

 NO OUTPUT CONTROL FOR STRESS PERIOD   22   TIME STEP    2
 
 SOLVING FOR HEAD 
                                                   Max.-Head-Change                         Max.-Flux-Residual
  Residual-Control   Outer-Iter.   Inner-Iter.     Column Row Layer    Maximum-Head-Change  Column Row Layer    Maximum-Flux-Residual          L2-NORM 
          0                 1           2             4    7     1      -0.1623424415E+00       4    7    1        -0.8488727774E+01      0.2030189212E+02
          0                 2           2             4    7     1       0.1579127697E-01       4    7    1         0.8488585178E+00      0.2029930681E+01
          0                 3           2             4    7     1      -0.1075329587E-02       4    7    1        -0.5942025683E-01      0.1420794073E+00
          0                 4           1             4    7     1       0.4278836056E-04       4    7    1         0.2430291258E-02      0.5810438400E-02

    ------------------------------------------------
       NWT REQUIRED            4 OUTER ITERATIONS 
       AND A TOTAL OF          7 INNER ITERATIONS.
    ------------------------------------------------

 NO OUTPUT CONTROL FOR STRESS PERIOD   22   TIME STEP    3
 
 SOLVING FOR HEAD 
                                                   Max.-Head-Change                         Max.-Flux-Residual
  Residual-Control   Outer-Iter.   Inner-Iter.     Column Row Layer    Maximum-Head-Change  Column Row Layer    Maximum-Flux-Residual          L2-NORM 
          0                 1           2             4    7     1      -0.1613778446E+00       4    7    1        -0.8441549577E+01      0.1997462165E+02
          0                 2           2             4    7     1       0.1569742780E-01       4    7    1         0.8441393850E+00      0.1997221000E+01
          0                 3           2             4    7     1      -0.1068938938E-02       4    7    1        -0.5908992980E-01      0.1397915205E+00
          0                 4           1             4    7     1       0.4253407017E-04       4    7    1         0.2416780822E-02      0.5716978179E-02

    ------------------------------------------------
       NWT REQUIRED            4 OUTER ITERATIONS 
       AND A TOTAL OF          7 INNER ITERATIONS.
    ------------------------------------------------

 NO OUTPUT CONTROL FOR STRESS PERIOD   22   TIME STEP    4
 
 SOLVING FOR HEAD 
                                                   Max.-Head-Change                         Max.-Flux-Residual
  Residual-Control   Outer-Iter.   Inner-Iter.     Column Row Layer    Maximum-Head-Change  Column Row Layer    Maximum-Flux-Residual          L2-NORM 
          0                 1           2             5    8     1       0.4377977352E-01       5    8    1         0.2382876581E+01      0.5682877075E+01
          0                 2           2             5    8     1      -0.4258690504E-02       5    8    1        -0.2382935577E+00      0.5676601867E+00
          0                 3           2             5    8     1       0.2898723008E-03       5    8    1         0.1667326571E-01      0.3967772450E-01
          0                 4           1             5    8     1      -0.1165972491E-04       5    8    1        -0.6892412712E-03      0.1637248244E-02

    ------------------------------------------------
       NWT REQUIRED            4 OUTER ITERATIONS 
       AND A TOTAL OF          7 INNER ITERATIONS.
    ------------------------------------------------

 NO OUTPUT CONTROL FOR STRESS PERIOD   22   TIME STEP    5
 
 SOLVING FOR HEAD 
                                                   Max.-Head-Change                         Max.-Flux-Residual
  Residual-Control   Outer-Iter.   Inner-Iter.     Column Row Layer    Maximum-Head-Change  Column Row Layer    Maximum-Flux-Residual          L2-NORM 
          0                 1           2             5    8     1       0.4187337340E-01       5    8    1         0.2276816031E+01      0.5490149651E+01
          0                 2           2             5    8     1      -0.4073251520E-02       5    8    1        -0.2276876257E+00      0.5484412086E+00
          0                 3           2             5    8     1       0.2772445765E-03       5    8    1         0.1593084902E-01      0.3833714541E-01
          0                 4           1             5    8     1      -0.1115725591E-04       5    8    1        -0.6588763938E-03      0.1582981770E-02

    ------------------------------------------------
       NWT REQUIRED            4 OUTER ITERATIONS 
       AND A TOTAL OF          7 INNER ITERATIONS.
    ------------------------------------------------

 NO OUTPUT CONTROL FOR STRESS PERIOD   22   TIME STEP    6
 
 SOLVING FOR HEAD 
                                                   Max.-Head-Change                         Max.-Flux-Residual
  Residual-Control   Outer-Iter.   Inner-Iter.     Column Row Layer    Maximum-Head-Change  Column Row Layer    Maximum-Flux-Residual          L2-NORM 
          0                 1           2             5    8     1       0.4008990378E-01       5    8    1         0.2177675035E+01      0.5309622010E+01
          0                 2           2             5    8     1      -0.3899770099E-02       5    8    1        -0.2177736336E+00      0.5306016540E+00
          0                 3           2             5    8     1       0.2654311192E-03       5    8    1         0.1523686821E-01      0.3730766363E-01
          0                 4           1             5    8     1      -0.1068718750E-04       5    8    1        -0.6304925444E-03      0.1540426565E-02

    ------------------------------------------------
       NWT REQUIRED            4 OUTER ITERATIONS 
       AND A TOTAL OF          7 INNER ITERATIONS.
    ------------------------------------------------

 NO OUTPUT CONTROL FOR STRESS PERIOD   22   TIME STEP    7
 
 SOLVING FOR HEAD 
                                                   Max.-Head-Change                         Max.-Flux-Residual
  Residual-Control   Outer-Iter.   Inner-Iter.     Column Row Layer    Maximum-Head-Change  Column Row Layer    Maximum-Flux-Residual          L2-NORM 
          0                 1           2             5    8     1       0.3841996917E-01       5    8    1         0.2084920588E+01      0.5140257022E+01
          0                 2           2             5    8     1      -0.3737332353E-02       5    8    1        -0.2084982832E+00      0.5135424766E+00
          0                 3           2             5    8     1       0.2543696977E-03       5    8    1         0.1458759253E-01      0.3590323187E-01
          0                 4           1             5    8     1      -0.1024704305E-04       5    8    1        -0.6039371171E-03      0.1484505333E-02

    ------------------------------------------------
       NWT REQUIRED            4 OUTER ITERATIONS 
       AND A TOTAL OF          7 INNER ITERATIONS.
    ------------------------------------------------

 NO OUTPUT CONTROL FOR STRESS PERIOD   22   TIME STEP    8
 
 SOLVING FOR HEAD 
                                                   Max.-Head-Change                         Max.-Flux-Residual
  Residual-Control   Outer-Iter.   Inner-Iter.     Column Row Layer    Maximum-Head-Change  Column Row Layer    Maximum-Flux-Residual          L2-NORM 
          0                 1           2             5    8     1       0.3685510879E-01       5    8    1         0.1998073052E+01      0.4981125942E+01
          0                 2           2             5    8     1      -0.3585115306E-02       5    8    1        -0.1998136128E+00      0.4976662738E+00
          0                 3           2             5    8     1       0.2440042695E-03       5    8    1         0.1397966456E-01      0.3479527435E-01
          0                 4           1             5    8     1      -0.9834593014E-05       5    8    1        -0.5790728299E-03      0.1439443830E-02

    ------------------------------------------------
       NWT REQUIRED            4 OUTER ITERATIONS 
       AND A TOTAL OF          7 INNER ITERATIONS.
    ------------------------------------------------

 NO OUTPUT CONTROL FOR STRESS PERIOD   22   TIME STEP    9
 
 SOLVING FOR HEAD 
                                                   Max.-Head-Change                         Max.-Flux-Residual
  Residual-Control   Outer-Iter.   Inner-Iter.     Column Row Layer    Maximum-Head-Change  Column Row Layer    Maximum-Flux-Residual          L2-NORM 
          0                 1           2             5    8     1       0.3538757440E-01       5    8    1         0.1916693413E+01      0.4831379330E+01
          0                 2           2             5    8     1      -0.3442365288E-02       5    8    1        -0.1916757226E+00      0.4827243129E+00
          0                 3           2             5    8     1       0.2342835122E-03       5    8    1         0.1341001129E-01      0.3375254172E-01
          0                 4           1             5    8     1      -0.9447795477E-05       5    8    1        -0.5557740021E-03      0.1397136670E-02

    ------------------------------------------------
       NWT REQUIRED            4 OUTER ITERATIONS 
       AND A TOTAL OF          7 INNER ITERATIONS.
    ------------------------------------------------

 NO OUTPUT CONTROL FOR STRESS PERIOD   22   TIME STEP   10
 
 SOLVING FOR HEAD 
                                                   Max.-Head-Change                         Max.-Flux-Residual
  Residual-Control   Outer-Iter.   Inner-Iter.     Column Row Layer    Maximum-Head-Change  Column Row Layer    Maximum-Flux-Residual          L2-NORM 
          0                 1           2             5    6     1       0.3402927070E-01       5    8    1         0.1840371748E+01      0.4690229240E+01
          0                 2           2             5    6     1      -0.3310239876E-02       5    8    1        -0.1840436218E+00      0.4686382353E+00
          0                 3           2             5    6     1       0.2252860582E-03       5    8    1         0.1287576339E-01      0.3276943402E-01
          0                 4           1             5    6     1      -0.9089951955E-05       5    8    1        -0.5339232346E-03      0.1356986978E-02

    ------------------------------------------------
       NWT REQUIRED            4 OUTER ITERATIONS 
       AND A TOTAL OF          7 INNER ITERATIONS.
    ------------------------------------------------

 NO OUTPUT CONTROL FOR STRESS PERIOD   22   TIME STEP   11
 
 SOLVING FOR HEAD 
                                                   Max.-Head-Change                         Max.-Flux-Residual
  Residual-Control   Outer-Iter.   Inner-Iter.     Column Row Layer    Maximum-Head-Change  Column Row Layer    Maximum-Flux-Residual          L2-NORM 
          0                 1           2             5    6     1       0.3279883673E-01       5    6    1         0.1769918213E+01      0.4557034115E+01
          0                 2           2             5    6     1      -0.3190553185E-02       5    6    1        -0.1769982926E+00      0.4553441914E+00
          0                 3           2             5    6     1       0.2171358283E-03       5    6    1         0.1238258990E-01      0.3184146453E-01
          0                 4           1             5    6     1      -0.8765646945E-05       5    6    1        -0.5137523945E-03      0.1319556102E-02

    ------------------------------------------------
       NWT REQUIRED            4 OUTER ITERATIONS 
       AND A TOTAL OF          7 INNER ITERATIONS.
    ------------------------------------------------

 NO OUTPUT CONTROL FOR STRESS PERIOD   22   TIME STEP   12
 
 SOLVING FOR HEAD 
                                                   Max.-Head-Change                         Max.-Flux-Residual
  Residual-Control   Outer-Iter.   Inner-Iter.     Column Row Layer    Maximum-Head-Change  Column Row Layer    Maximum-Flux-Residual          L2-NORM 
          0                 1           2             3    7     1      -0.1080924645E-01       6    7    1        -0.4748163942E+00      0.1717156820E+01
          0                 2           2             3    7     1       0.1051440049E-02       6    7    1         0.4748138421E-01      0.1708046648E+00
          0                 3           1             3    7     1      -0.7160044255E-04       6    7    1        -0.3323700743E-02      0.1192027225E-01

    ------------------------------------------------
       NWT REQUIRED            3 OUTER ITERATIONS 
       AND A TOTAL OF          5 INNER ITERATIONS.
    ------------------------------------------------

 NO OUTPUT CONTROL FOR STRESS PERIOD   22   TIME STEP   13
 
 SOLVING FOR HEAD 
                                                   Max.-Head-Change                         Max.-Flux-Residual
  Residual-Control   Outer-Iter.   Inner-Iter.     Column Row Layer    Maximum-Head-Change  Column Row Layer    Maximum-Flux-Residual          L2-NORM 
          0                 1           2             5    7     1       0.3142418108E-01       5    6    1         0.1692853187E+01      0.4399933388E+01
          0                 2           2             5    7     1      -0.3056845827E-02       5    6    1        -0.1692918691E+00      0.4396821861E+00
          0                 3           2             5    7     1       0.2080289900E-03       5    6    1         0.1184313928E-01      0.3074953789E-01
          0                 4           1             5    7     1      -0.8405046232E-05       5    6    1        -0.4916888488E-03      0.1275170096E-02

    ------------------------------------------------
       NWT REQUIRED            4 OUTER ITERATIONS 
       AND A TOTAL OF          7 INNER ITERATIONS.
    ------------------------------------------------

 NO OUTPUT CONTROL FOR STRESS PERIOD   22   TIME STEP   14
 
 SOLVING FOR HEAD 
                                                   Max.-Head-Change                         Max.-Flux-Residual
  Residual-Control   Outer-Iter.   Inner-Iter.     Column Row Layer    Maximum-Head-Change  Column Row Layer    Maximum-Flux-Residual          L2-NORM 
          0                 1           2             5    7     1       0.3082632513E-01       5    7    1         0.1634419191E+01      0.4282892931E+01
          0                 2           2             5    7     1      -0.2998692118E-02       5    7    1        -0.1634490078E+00      0.4279946710E+00
          0                 3           2             5    7     1       0.2040689244E-03       5    7    1         0.1143413371E-01      0.2993308431E-01
          0                 4           1             5    7     1      -0.8247471661E-05       5    7    1        -0.4749605230E-03      0.1241993247E-02

    ------------------------------------------------
       NWT REQUIRED            4 OUTER ITERATIONS 
       AND A TOTAL OF          7 INNER ITERATIONS.
    ------------------------------------------------

 NO OUTPUT CONTROL FOR STRESS PERIOD   22   TIME STEP   15
 
 SOLVING FOR HEAD 
                                                   Max.-Head-Change                         Max.-Flux-Residual
  Residual-Control   Outer-Iter.   Inner-Iter.     Column Row Layer    Maximum-Head-Change  Column Row Layer    Maximum-Flux-Residual          L2-NORM 
          0                 1           2             4    7     1       0.3026775760E-01       5    7    1         0.1603323169E+01      0.4171925050E+01
          0                 2           2             4    7     1      -0.2944364202E-02       5    7    1        -0.1603394867E+00      0.4169119432E+00
          0                 3           2             4    7     1       0.2003680013E-03       5    7    1         0.1121646639E-01      0.2915905016E-01
          0                 4           1             4    7     1      -0.8101520949E-05       5    7    1        -0.4660579132E-03      0.1210566722E-02

    ------------------------------------------------
       NWT REQUIRED            4 OUTER ITERATIONS 
       AND A TOTAL OF          7 INNER ITERATIONS.
    ------------------------------------------------

 NO OUTPUT CONTROL FOR STRESS PERIOD   22   TIME STEP   16
 
 SOLVING FOR HEAD 
                                                   Max.-Head-Change                         Max.-Flux-Residual
  Residual-Control   Outer-Iter.   Inner-Iter.     Column Row Layer    Maximum-Head-Change  Column Row Layer    Maximum-Flux-Residual          L2-NORM 
          0                 1           2             4    7     1       0.3006372328E-01       4    7    1         0.1573868567E+01      0.4066568963E+01
          0                 2           2             4    7     1      -0.2924515130E-02       4    7    1        -0.1573943097E+00      0.4061288768E+00
          0                 3           2             4    7     1       0.1990163406E-03       4    7    1         0.1101030121E-01      0.2840567427E-01
          0                 4           1             4    7     1      -0.8047737133E-05       4    7    1        -0.4576257654E-03      0.1179948027E-02

    ------------------------------------------------
       NWT REQUIRED            4 OUTER ITERATIONS 
       AND A TOTAL OF          7 INNER ITERATIONS.
    ------------------------------------------------

 NO OUTPUT CONTROL FOR STRESS PERIOD   22   TIME STEP   17
 
 SOLVING FOR HEAD 
                                                   Max.-Head-Change                         Max.-Flux-Residual
  Residual-Control   Outer-Iter.   Inner-Iter.     Column Row Layer    Maximum-Head-Change  Column Row Layer    Maximum-Flux-Residual          L2-NORM 
          0                 1           2             4    7     1       0.2984477605E-01       4    7    1         0.1563267088E+01      0.3966578832E+01
          0                 2           2             4    7     1      -0.2903221993E-02       4    7    1        -0.1563342358E+00      0.3964017720E+00
          0                 3           2             4    7     1       0.1975663465E-03       4    7    1         0.1093609532E-01      0.2772607084E-01
          0                 4           1             4    7     1      -0.7990040936E-05       4    7    1        -0.4545907586E-03      0.1152312221E-02

    ------------------------------------------------
       NWT REQUIRED            4 OUTER ITERATIONS 
       AND A TOTAL OF          7 INNER ITERATIONS.
    ------------------------------------------------

 NO OUTPUT CONTROL FOR STRESS PERIOD   22   TIME STEP   18
 
 SOLVING FOR HEAD 
                                                   Max.-Head-Change                         Max.-Flux-Residual
  Residual-Control   Outer-Iter.   Inner-Iter.     Column Row Layer    Maximum-Head-Change  Column Row Layer    Maximum-Flux-Residual          L2-NORM 
          0                 1           2             4    7     1       0.2961222726E-01       4    7    1         0.1551884081E+01      0.3871917752E+01
          0                 2           2             4    7     1      -0.2880602324E-02       4    7    1        -0.1551960012E+00      0.3869450280E+00
          0                 3           2             4    7     1       0.1960260211E-03       4    7    1         0.1085641823E-01      0.2706508608E-01
          0                 4           1             4    7     1      -0.7928749880E-05       4    7    1        -0.4513319523E-03      0.1125271238E-02

    ------------------------------------------------
       NWT REQUIRED            4 OUTER ITERATIONS 
       AND A TOTAL OF          7 INNER ITERATIONS.
    ------------------------------------------------

 NO OUTPUT CONTROL FOR STRESS PERIOD   22   TIME STEP   19
 
 SOLVING FOR HEAD 
                                                   Max.-Head-Change                         Max.-Flux-Residual
  Residual-Control   Outer-Iter.   Inner-Iter.     Column Row Layer    Maximum-Head-Change  Column Row Layer    Maximum-Flux-Residual          L2-NORM 
          0                 1           2             4    7     1       0.2936730675E-01       4    7    1         0.1539788125E+01      0.3781646929E+01
          0                 2           2             4    7     1      -0.2856779113E-02       4    7    1        -0.1539864643E+00      0.3779258090E+00
          0                 3           2             4    7     1       0.1944037402E-03       4    7    1         0.1077175005E-01      0.2643476984E-01
          0                 4           1             4    7     1      -0.7864197604E-05       4    7    1        -0.4478690180E-03      0.1099693923E-02

    ------------------------------------------------
       NWT REQUIRED            4 OUTER ITERATIONS 
       AND A TOTAL OF          7 INNER ITERATIONS.
    ------------------------------------------------

 NO OUTPUT CONTROL FOR STRESS PERIOD   22   TIME STEP   20
 
 SOLVING FOR HEAD 
                                                   Max.-Head-Change                         Max.-Flux-Residual
  Residual-Control   Outer-Iter.   Inner-Iter.     Column Row Layer    Maximum-Head-Change  Column Row Layer    Maximum-Flux-Residual          L2-NORM 
          0                 1           2             4    7     1       0.2911130239E-01       4    7    1         0.1527050216E+01      0.3695467246E+01
          0                 2           2             4    7     1      -0.2831877672E-02       4    7    1        -0.1527127251E+00      0.3693148102E+00
          0                 3           2             4    7     1       0.1927080330E-03       4    7    1         0.1068258778E-01      0.2583304705E-01
          0                 4           1             4    7     1      -0.7796723965E-05       4    7    1        -0.4442222805E-03      0.1075153699E-02

    ------------------------------------------------
       NWT REQUIRED            4 OUTER ITERATIONS 
       AND A TOTAL OF          7 INNER ITERATIONS.
    ------------------------------------------------

 NO OUTPUT CONTROL FOR STRESS PERIOD   22   TIME STEP   21
 
 SOLVING FOR HEAD 
                                                   Max.-Head-Change                         Max.-Flux-Residual
  Residual-Control   Outer-Iter.   Inner-Iter.     Column Row Layer    Maximum-Head-Change  Column Row Layer    Maximum-Flux-Residual          L2-NORM 
          0                 1           2             4    7     1       0.1062813937E-01       4    7    1         0.5619010713E+00      0.1635399835E+01
          0                 2           2             4    7     1      -0.1033965477E-02       4    7    1        -0.5619749667E-01      0.1630134976E+00
          0                 3           1             4    7     1       0.7027643215E-04       4    7    1         0.3926494542E-02      0.1139635935E-01

    ------------------------------------------------
       NWT REQUIRED            3 OUTER ITERATIONS 
       AND A TOTAL OF          5 INNER ITERATIONS.
    ------------------------------------------------

 NO OUTPUT CONTROL FOR STRESS PERIOD   22   TIME STEP   22
 
 SOLVING FOR HEAD 
                                                   Max.-Head-Change                         Max.-Flux-Residual
  Residual-Control   Outer-Iter.   Inner-Iter.     Column Row Layer    Maximum-Head-Change  Column Row Layer    Maximum-Flux-Residual          L2-NORM 
          0                 1           2             4    7     1       0.2866682587E-01       4    7    1         0.1504484793E+01      0.3579387814E+01
          0                 2           2             4    7     1      -0.2788643357E-02       4    7    1        -0.1504562362E+00      0.3577211023E+00
          0                 3           2             4    7     1       0.1897639292E-03       4    7    1         0.1052463301E-01      0.2502299269E-01
          0                 4           1             4    7     1      -0.7679574955E-05       4    7    1        -0.4377619168E-03      0.1042258682E-02

    ------------------------------------------------
       NWT REQUIRED            4 OUTER ITERATIONS 
       AND A TOTAL OF          7 INNER ITERATIONS.
    ------------------------------------------------

 NO OUTPUT CONTROL FOR STRESS PERIOD   22   TIME STEP   23
 
 SOLVING FOR HEAD 
                                                   Max.-Head-Change                         Max.-Flux-Residual
  Residual-Control   Outer-Iter.   Inner-Iter.     Column Row Layer    Maximum-Head-Change  Column Row Layer    Maximum-Flux-Residual          L2-NORM 
          0                 1           2             4    7     1       0.2839196059E-01       4    7    1         0.1490629874E+01      0.3501943167E+01
          0                 2           2             4    7     1      -0.2761907006E-02       4    7    1        -0.1490707824E+00      0.3499806327E+00
          0                 3           2             4    7     1       0.1879432774E-03       4    7    1         0.1042765081E-01      0.2448194599E-01
          0                 4           1             4    7     1      -0.7607129761E-05       4    7    1        -0.4337953553E-03      0.1020240604E-02

    ------------------------------------------------
       NWT REQUIRED            4 OUTER ITERATIONS 
       AND A TOTAL OF          7 INNER ITERATIONS.
    ------------------------------------------------

 NO OUTPUT CONTROL FOR STRESS PERIOD   22   TIME STEP   24
 
 SOLVING FOR HEAD 
                                                   Max.-Head-Change                         Max.-Flux-Residual
  Residual-Control   Outer-Iter.   Inner-Iter.     Column Row Layer    Maximum-Head-Change  Column Row Layer    Maximum-Flux-Residual          L2-NORM 
          0                 1           2             4    7     1       0.2810969244E-01       4    7    1         0.1476338167E+01      0.3427742555E+01
          0                 2           2             4    7     1      -0.2734450484E-02       4    7    1        -0.1476416445E+00      0.3425636266E+00
          0                 3           2             4    7     1       0.1860735852E-03       4    7    1         0.1032761081E-01      0.2396334970E-01
          0                 4           1             4    7     1      -0.7532733039E-05       4    7    1        -0.4297037026E-03      0.9991514964E-03

    ------------------------------------------------
       NWT REQUIRED            4 OUTER ITERATIONS 
       AND A TOTAL OF          7 INNER ITERATIONS.
    ------------------------------------------------

 NO OUTPUT CONTROL FOR STRESS PERIOD   22   TIME STEP   25
 
 SOLVING FOR HEAD 
                                                   Max.-Head-Change                         Max.-Flux-Residual
  Residual-Control   Outer-Iter.   Inner-Iter.     Column Row Layer    Maximum-Head-Change  Column Row Layer    Maximum-Flux-Residual          L2-NORM 
          0                 1           2             4    7     1       0.2782097293E-01       4    7    1         0.1461662331E+01      0.3356586728E+01
          0                 2           2             4    7     1      -0.2706366353E-02       4    7    1        -0.1461740891E+00      0.3354505600E+00
          0                 3           2             4    7     1       0.1841611564E-03       4    7    1         0.1022488163E-01      0.2346595774E-01
          0                 4           1             4    7     1      -0.7456635767E-05       4    7    1        -0.4255020863E-03      0.9788006797E-03

    ------------------------------------------------
       NWT REQUIRED            4 OUTER ITERATIONS 
       AND A TOTAL OF          7 INNER ITERATIONS.
    ------------------------------------------------

 NO OUTPUT CONTROL FOR STRESS PERIOD   22   TIME STEP   26
 
 SOLVING FOR HEAD 
                                                   Max.-Head-Change                         Max.-Flux-Residual
  Residual-Control   Outer-Iter.   Inner-Iter.     Column Row Layer    Maximum-Head-Change  Column Row Layer    Maximum-Flux-Residual          L2-NORM 
          0                 1           2             4    7     1       0.2752654825E-01       4    7    1         0.1446644376E+01      0.3288274926E+01
          0                 2           2             4    7     1      -0.2677727202E-02       4    7    1        -0.1446723177E+00      0.3286211330E+00
          0                 3           2             4    7     1       0.1822109329E-03       4    7    1         0.1011975735E-01      0.2298858739E-01
          0                 4           1             4    7     1      -0.7379034699E-05       4    7    1        -0.4212025069E-03      0.9593819765E-03

    ------------------------------------------------
       NWT REQUIRED            4 OUTER ITERATIONS 
       AND A TOTAL OF          7 INNER ITERATIONS.
    ------------------------------------------------

 NO OUTPUT CONTROL FOR STRESS PERIOD   22   TIME STEP   27
 
 SOLVING FOR HEAD 
                                                   Max.-Head-Change                         Max.-Flux-Residual
  Residual-Control   Outer-Iter.   Inner-Iter.     Column Row Layer    Maximum-Head-Change  Column Row Layer    Maximum-Flux-Residual          L2-NORM 
          0                 1           2             4    7     1       0.2722738322E-01       4    7    1         0.1431337748E+01      0.3222634434E+01
          0                 2           2             4    7     1      -0.2648626893E-02       4    7    1        -0.1431416751E+00      0.3220551390E+00
          0                 3           2             4    7     1       0.1802293072E-03       4    7    1         0.1001261213E-01      0.2252939121E-01
          0                 4           1             4    7     1      -0.7300183691E-05       4    7    1        -0.4168202529E-03      0.9408338878E-03

    ------------------------------------------------
       NWT REQUIRED            4 OUTER ITERATIONS 
       AND A TOTAL OF          7 INNER ITERATIONS.
    ------------------------------------------------

 NO OUTPUT CONTROL FOR STRESS PERIOD   22   TIME STEP   28
 
 SOLVING FOR HEAD 
                                                   Max.-Head-Change                         Max.-Flux-Residual
  Residual-Control   Outer-Iter.   Inner-Iter.     Column Row Layer    Maximum-Head-Change  Column Row Layer    Maximum-Flux-Residual          L2-NORM 
          0                 1           2             4    7     1       0.2692424893E-01       4    7    1         0.1415785147E+01      0.3159522661E+01
          0                 2           2             4    7     1      -0.2619140423E-02       4    7    1        -0.1415864317E+00      0.3157485882E+00
          0                 3           2             4    7     1       0.1782213854E-03       4    7    1         0.9903744883E-02      0.2208830316E-01
          0                 4           1             4    7     1      -0.7220286402E-05       4    7    1        -0.4123675772E-03      0.9227346928E-03

    ------------------------------------------------
       NWT REQUIRED            4 OUTER ITERATIONS 
       AND A TOTAL OF          7 INNER ITERATIONS.
    ------------------------------------------------

 NO OUTPUT CONTROL FOR STRESS PERIOD   22   TIME STEP   29
 
 SOLVING FOR HEAD 
                                                   Max.-Head-Change                         Max.-Flux-Residual
  Residual-Control   Outer-Iter.   Inner-Iter.     Column Row Layer    Maximum-Head-Change  Column Row Layer    Maximum-Flux-Residual          L2-NORM 
          0                 1           2             4    7     1       0.2661771291E-01       4    7    1         0.1400019218E+01      0.3098758433E+01
          0                 2           2             4    7     1      -0.2589323016E-02       4    7    1        -0.1400098523E+00      0.3096729136E+00
          0                 3           2             4    7     1       0.1761909290E-03       4    7    1         0.9793384151E-02      0.2166341420E-01
          0                 4           1             4    7     1      -0.7139492961E-05       4    7    1        -0.4078538232E-03      0.9054377943E-03

    ------------------------------------------------
       NWT REQUIRED            4 OUTER ITERATIONS 
       AND A TOTAL OF          7 INNER ITERATIONS.
    ------------------------------------------------

 NO OUTPUT CONTROL FOR STRESS PERIOD   22   TIME STEP   30



 STREAM LISTING     PERIOD     22   STEP       30

 LAYER ROW COL. STREAM  RCH.  FLOW INTO     FLOW TO   FLOW OUT OF   OVRLND.     DIRECT     STREAM       STREAM     STREAM     STREAM   STREAMBED  STREAMBED
                SEG.NO.  NO.  STRM. RCH.    AQUIFER    STRM. RCH.    RUNOFF     PRECIP       ET          HEAD       DEPTH      WIDTH   CONDCTNC.   GRADIENT

   1    1    1     1     1    2.5000E+01  2.4515E-01   2.4755E+01  0.000E+00  0.000E+00  0.000E+00  1.09423E+03  1.178E+00  1.304E+01  5.867E-02  1.393E+00
   1    2    2     1     2    2.4755E+01  3.7909E-01   2.4376E+01  0.000E+00  0.000E+00  0.000E+00  1.08923E+03  1.174E+00  1.298E+01  9.083E-02  1.391E+00
   1    3    3     1     3    2.4376E+01  3.2275E-01   2.4053E+01  0.000E+00  0.000E+00  0.000E+00  1.08359E+03  1.168E+00  1.290E+01  7.743E-02  1.389E+00
   1    3    4     1     4    2.4053E+01  2.9675E-01   2.3756E+01  0.000E+00  0.000E+00  0.000E+00  1.07857E+03  1.164E+00  1.284E+01  7.127E-02  1.388E+00
   1    4    5     2     1    2.1756E+01  3.2027E-01   2.1436E+01  0.000E+00  0.000E+00  0.000E+00  1.07304E+03  1.106E+00  1.200E+01  7.800E-02  1.369E+00
   1    5    6     2     2    2.1436E+01  2.4584E-01   2.1190E+01  0.000E+00  0.000E+00  0.000E+00  1.06761E+03  1.097E+00  1.200E+01  6.000E-02  1.366E+00
   1    6    6     2     3    2.1190E+01  2.4538E-01   2.0945E+01  0.000E+00  0.000E+00  0.000E+00  1.06288E+03  1.090E+00  1.200E+01  6.000E-02  1.363E+00
   1    7    6     2     4    2.0945E+01  2.4493E-01   2.0700E+01  0.000E+00  0.000E+00  0.000E+00  1.05816E+03  1.082E+00  1.200E+01  6.000E-02  1.361E+00
   1    8    6     2     5    2.0700E+01  2.4447E-01   2.0455E+01  0.000E+00  0.000E+00  0.000E+00  1.05343E+03  1.074E+00  1.200E+01  6.000E-02  1.358E+00
   1    3    5     3     1    2.0000E+00  2.8252E-01   1.7175E+00  0.000E+00  0.000E+00  0.000E+00  1.07555E+03  1.909E+00  9.636E+00  7.227E-02  1.955E+00
   1    3    6     3     2    1.7175E+00  2.4905E-01   1.4684E+00  0.000E+00  0.000E+00  0.000E+00  1.07264E+03  1.727E+00  8.909E+00  6.682E-02  1.864E+00
   1    3    7     3     3    1.4684E+00  1.9718E-01   1.2712E+00  0.000E+00  0.000E+00  0.000E+00  1.06987E+03  1.555E+00  8.218E+00  5.547E-02  1.777E+00
   1    4    8     3     4    1.2712E+00  2.2567E-01   1.0456E+00  0.000E+00  0.000E+00  0.000E+00  1.06682E+03  1.364E+00  7.455E+00  6.709E-02  1.682E+00
   1    5    8     3     5    1.0456E+00  1.5790E-01   8.8768E-01  0.000E+00  0.000E+00  0.000E+00  1.06362E+03  1.164E+00  6.655E+00  4.991E-02  1.582E+00
   1    6    8     3     6    8.8768E-01  5.5980E-02   8.3170E-01  0.000E+00  0.000E+00  0.000E+00  1.06158E+03  1.036E+00  6.145E+00  1.844E-02  1.518E+00
   1    5   10     4     1    1.0000E+01  9.0919E-02   9.9091E+00  0.000E+00  0.000E+00  0.000E+00  1.07836E+03  6.368E-01  1.000E+01  2.500E-02  1.212E+00
   1    5    9     4     2    9.9091E+00  1.8158E-01   9.7275E+00  0.000E+00  0.000E+00  0.000E+00  1.07154E+03  6.315E-01  1.000E+01  5.000E-02  1.211E+00
   1    6    8     4     3    9.7275E+00  1.2689E-01   9.6006E+00  0.000E+00  0.000E+00  0.000E+00  1.06381E+03  6.256E-01  1.000E+01  3.500E-02  1.209E+00
   1    6    8     5     1    1.0432E+01  2.2686E-01   1.0205E+01  0.000E+00  0.000E+00  0.000E+00  1.05868E+03  6.790E-01  1.542E+01  6.166E-02  1.226E+00
   1    7    7     5     2    1.0205E+01  2.7894E-01   9.9265E+00  0.000E+00  0.000E+00  0.000E+00  1.05417E+03  6.732E-01  1.519E+01  7.594E-02  1.224E+00
   1    8    7     5     3    9.9265E+00  1.9221E-01   9.7343E+00  0.000E+00  0.000E+00  0.000E+00  1.04992E+03  6.676E-01  1.497E+01  5.241E-02  1.223E+00
   1    8    6     5     4    9.7343E+00  1.3577E-01   9.5985E+00  0.000E+00  0.000E+00  0.000E+00  1.04691E+03  6.637E-01  1.482E+01  3.706E-02  1.221E+00
   1    9    6     6     1    3.0054E+01  2.6161E-01   2.9792E+01  0.000E+00  0.000E+00  0.000E+00  1.04409E+03  1.360E+00  1.200E+01  6.000E-02  1.453E+00
   1   10    7     6     2    2.9792E+01  2.6118E-01   2.9531E+01  0.000E+00  0.000E+00  0.000E+00  1.03953E+03  1.353E+00  1.200E+01  6.000E-02  1.451E+00
   1   11    7     6     3    2.9531E+01  2.6075E-01   2.9270E+01  0.000E+00  0.000E+00  0.000E+00  1.03498E+03  1.346E+00  1.200E+01  6.000E-02  1.449E+00
   1   12    7     6     4    2.9270E+01  2.6032E-01   2.9010E+01  0.000E+00  0.000E+00  0.000E+00  1.03043E+03  1.339E+00  1.200E+01  6.000E-02  1.446E+00
   1   13    7     6     5    2.9010E+01  6.0116E-03   2.9004E+01  0.000E+00  0.000E+00  0.000E+00  1.02724E+03  1.335E+00  1.200E+01  2.400E-02  8.349E-02
   1   14    9     7     1    1.5000E+02  1.3344E+00   1.4867E+02  0.000E+00  0.000E+00  0.000E+00  1.03987E+03  2.288E+00  5.529E+01  5.593E-01  7.953E-01
   1   13    8     7     2    1.4867E+02  1.8436E+00   1.4682E+02  0.000E+00  0.000E+00  0.000E+00  1.03478E+03  2.279E+00  5.526E+01  6.148E-01  9.996E-01
   1   13    7     7     3    1.4682E+02  1.5056E+00   1.4532E+02  0.000E+00  0.000E+00  0.000E+00  1.02969E+03  2.270E+00  5.522E+01  5.584E-01  8.987E-01
   1   13    6     8     1    1.7432E+02  1.0154E+00   1.7331E+02  0.000E+00  0.000E+00  0.000E+00  1.02485E+03  2.977E+00  4.316E+01  4.399E-01  7.695E-01
   1   13    5     8     2    1.7331E+02  3.2185E-01   1.7298E+02  0.000E+00  0.000E+00  0.000E+00  1.01860E+03  2.973E+00  4.310E+01  4.392E-01  2.443E-01
   1   13    4     8     3    1.7298E+02 -1.8154E+00   1.7480E+02  0.000E+00  0.000E+00  0.000E+00  1.01235E+03  2.977E+00  4.317E+01  4.399E+00 -1.375E-01
   1   13    3     8     4    1.7480E+02 -3.1219E+00   1.7792E+02  0.000E+00  0.000E+00  0.000E+00  1.00612E+03  2.993E+00  4.340E+01  4.423E+00 -2.353E-01
   1   13    2     8     5    1.7792E+02 -2.2259E+00   1.8015E+02  0.000E+00  0.000E+00  0.000E+00  9.99885E+02  3.010E+00  4.365E+01  4.448E+00 -1.668E-01
   1   13    1     8     6    1.8015E+02 -1.3981E+00   1.8154E+02  0.000E+00  0.000E+00  0.000E+00  9.94896E+02  3.021E+00  4.381E+01  2.679E+00 -1.740E-01





UNSATURATED ZONE PACKAGE VOLUMETRIC BUDGET FOR  TIME STEP    30 STRESS PERIOD   22
  ------------------------------------------------------------------------------



     CUMULATIVE VOLUMES      L**3       RATES FOR THIS TIME STEP      L**3/T
     ------------------                 ------------------------

           IN:                                      IN:
           ---                                      ---
        INFILTRATION =   365435866.3597          INFILTRATION =           0.8477

          OUT:                                     OUT:
          ----                                     ----
              UZF ET =   197197183.7420                UZF ET =           4.3425
        UZF RECHARGE =    11148856.1409          UZF RECHARGE =           0.0428

            IN - OUT =   157089826.4768              IN - OUT =          -3.5376

          STORAGE:                                 STORAGE:
          --------                                 --------
      STORAGE CHANGE =   157213288.8713        STORAGE CHANGE =          -3.5376

 PERCENT DISCREPANCY IS DIFFERENCE BETWEEN IN-OUT MINUS CHANGE IN STORAGE
 DIVIDED BY THE AVERAGE OF IN AND OUT TIMES 100

 PERCENT DISCREPANCY =          -0.01     PERCENT DISCREPANCY =          -0.00






1
  VOLUMETRIC BUDGET FOR ENTIRE MODEL AT END OF TIME STEP   30, STRESS PERIOD  22
  ------------------------------------------------------------------------------

     CUMULATIVE VOLUMES      L**3       RATES FOR THIS TIME STEP      L**3/T
     ------------------                 ------------------------

           IN:                                      IN:
           ---                                      ---
               AWU WELLS =   318590336.0000                 AWU WELLS =       1.7529E-04
      DIVERSION SEGMENTS =           0.0000        DIVERSION SEGMENTS =           0.0000
           GW IRRIGATION =           0.0000             GW IRRIGATION =           0.0000
           SW IRRIGATION =           0.0000             SW IRRIGATION =           0.0000
        SYSTEM LOSSES GW =           0.0000          SYSTEM LOSSES GW =           0.0000
        SYSTEM LOSSES SW =           0.0000          SYSTEM LOSSES SW =           0.0000

                TOTAL IN =   318590336.0000                  TOTAL IN =       1.7529E-04

          OUT:                                     OUT:
          ----                                     ----
               AWU WELLS =           0.0000                 AWU WELLS =           0.0000
      DIVERSION SEGMENTS =           0.0000        DIVERSION SEGMENTS =           0.0000
           GW IRRIGATION =   318590336.0000             GW IRRIGATION =       1.7529E-04
           SW IRRIGATION =           0.0000             SW IRRIGATION =           0.0000
        SYSTEM LOSSES GW =           0.0000          SYSTEM LOSSES GW =           0.0000
        SYSTEM LOSSES SW =           0.0000          SYSTEM LOSSES SW =           0.0000

               TOTAL OUT =   318590336.0000                 TOTAL OUT =       1.7529E-04

                IN - OUT =           0.0000                  IN - OUT =           0.0000

     PERCENT DISCREPANCY =           0.00         PERCENT DISCREPANCY =           0.00



1
  VOLUMETRIC BUDGET FOR ENTIRE MODEL AT END OF TIME STEP   30, STRESS PERIOD  22
  ------------------------------------------------------------------------------

     CUMULATIVE VOLUMES      L**3       RATES FOR THIS TIME STEP      L**3/T
     ------------------                 ------------------------

           IN:                                      IN:
           ---                                      ---
             STORAGE     =   520217184.0000               STORAGE     =           6.7035
       CONSTANT HEAD     =           0.0000         CONSTANT HEAD     =           0.0000
     HEAD DEP BOUNDS     =    15789223.0000       HEAD DEP BOUNDS     =           0.2857
      STREAM LEAKAGE     =   701497280.0000        STREAM LEAKAGE     =          12.0168
        UZF RECHARGE     =    11148859.0000          UZF RECHARGE     =       4.2772E-02
               GW ET     =           0.0000                 GW ET     =           0.0000
     SURFACE LEAKAGE     =           0.0000       SURFACE LEAKAGE     =           0.0000
           AWU WELLS     =           0.0000             AWU WELLS     =           0.0000

                TOTAL IN =  1248652544.0000                  TOTAL IN =          19.0487

          OUT:                                     OUT:
          ----                                     ----
             STORAGE     =   290090592.0000               STORAGE     =           7.8025
       CONSTANT HEAD     =           0.0000         CONSTANT HEAD     =           0.0000
     HEAD DEP BOUNDS     =    16019055.0000       HEAD DEP BOUNDS     =           0.2819
      STREAM LEAKAGE     =   513108608.0000        STREAM LEAKAGE     =           8.5613
        UZF RECHARGE     =           0.0000          UZF RECHARGE     =           0.0000
               GW ET     =   110848080.0000                 GW ET     =           2.4029
     SURFACE LEAKAGE     =           0.0000       SURFACE LEAKAGE     =           0.0000
           AWU WELLS     =   318590336.0000             AWU WELLS     =       1.7529E-04

               TOTAL OUT =  1248656640.0000                 TOTAL OUT =          19.0487

                IN - OUT =       -4096.0000                  IN - OUT =       1.3351E-05

     PERCENT DISCREPANCY =          -0.00         PERCENT DISCREPANCY =           0.00






         TIME SUMMARY AT END OF TIME STEP   30 IN STRESS PERIOD   22
                    SECONDS     MINUTES      HOURS       DAYS        YEARS
                    -----------------------------------------------------------
   TIME STEP LENGTH  87600.      1460.0      24.333      1.0139     2.77588E-03
 STRESS PERIOD TIME 2.62800E+06  43800.      730.00      30.417     8.32763E-02
         TOTAL TIME 5.52744E+07 9.21240E+05  15354.      639.75      1.7515    
1
1
                            STRESS PERIOD NO.   23, LENGTH =   2628000.    
                            -----------------------------------------------

                              NUMBER OF TIME STEPS =    30

                               MULTIPLIER FOR DELT =     1.000

                            INITIAL TIME STEP SIZE =   87600.00    

 REUSING NON-PARAMETER GHB CELLS FROM LAST STRESS PERIOD

      2 GHB CELLS

 REUSING STREAM SEGMENT DATA FROM LAST STRESS PERIOD



            AREAL INFILTRATION RATE
 READING ON UNIT   19 WITH FORMAT: (10F4.0)            

            1           2           3           4           5           6           7           8           9          10
 ........................................................................................................................
   1   1.0000E-10  2.0000E-10   0.000       0.000       0.000       0.000       0.000       0.000       0.000       0.000    
   2   2.0000E-10  1.0000E-10  2.0000E-10   0.000       0.000      8.0000E-10  8.0000E-10  5.0000E-10   0.000       0.000    
   3    0.000      5.0000E-10  1.0000E-10  1.0000E-10  8.0000E-10  8.0000E-10  5.0000E-10  5.0000E-10   0.000       0.000    
   4   8.0000E-10  5.0000E-10  1.0000E-10  1.0000E-10  1.0000E-10  1.0000E-10  1.0000E-10  1.0000E-10  2.0000E-10   0.000    
   5   8.0000E-10  5.0000E-10  1.0000E-10  1.0000E-10  1.0000E-10  1.0000E-10  1.0000E-10  1.0000E-10  1.0000E-10  1.0000E-10
   6   8.0000E-10  5.0000E-10  5.0000E-10  2.0000E-10  2.0000E-10  1.0000E-10  1.0000E-10  1.0000E-10  1.0000E-10  5.0000E-10
   7   8.0000E-10  5.0000E-10  5.0000E-10  2.0000E-10  2.0000E-10  1.0000E-10  1.0000E-10  2.0000E-10  2.0000E-10   0.000    
   8    0.000      5.0000E-10  5.0000E-10  2.0000E-10  2.0000E-10  1.0000E-10  1.0000E-10  2.0000E-10  5.0000E-10   0.000    
   9    0.000      5.0000E-10  5.0000E-10  2.0000E-10  2.0000E-10  1.0000E-10  1.0000E-10  2.0000E-10  5.0000E-10   0.000    
  10    0.000      5.0000E-10  5.0000E-10  2.0000E-10  2.0000E-10  1.0000E-10  1.0000E-10  2.0000E-10  5.0000E-10  8.0000E-10
  11    0.000      1.0000E-10  1.0000E-10  1.0000E-10  1.0000E-10  1.0000E-10  1.0000E-10  2.0000E-10  5.0000E-10   0.000    
  12   1.0000E-10  1.0000E-10  1.0000E-10  1.0000E-10  1.0000E-10  1.0000E-10  1.0000E-10  1.0000E-10  2.0000E-10   0.000    
  13   1.0000E-10  1.0000E-10  2.0000E-10  2.0000E-10  2.0000E-10  2.0000E-10  2.0000E-10  1.0000E-10  1.0000E-10   0.000    
  14    0.000      2.0000E-10  5.0000E-10  5.0000E-10  5.0000E-10  5.0000E-10  5.0000E-10  2.0000E-10  1.0000E-10   0.000    
  15    0.000       0.000      8.0000E-10  8.0000E-10  8.0000E-10  8.0000E-10   0.000       0.000       0.000       0.000    

                  ET RATE =  1.000000E-10

 USING ET EXTINCTION DEPTH FROM PREVIOUS STRESS PERIOD. CURRENT PERIOD IS:      23

 USING EXTINCTION WATER CONTENT FROM PREVIOUS STRESS PERIOD. CURRENT PERIOD IS:      23

 PROCESSING AWU STRESS PERIOD DATA

 READING AWU STRESS PERIOD DATA

 READING IRRIGATION WELL

 END PROCESSING AWU STRESS PERIOD DATA OPTIONS
 
 SOLVING FOR HEAD 
                                                   Max.-Head-Change                         Max.-Flux-Residual
  Residual-Control   Outer-Iter.   Inner-Iter.     Column Row Layer    Maximum-Head-Change  Column Row Layer    Maximum-Flux-Residual          L2-NORM 
          0                 1           2             4    7     1       0.2630856573E-01       4    7    1         0.1384084077E+01      0.3258074324E+01
          0                 2           2             4    7     1      -0.2559115596E-02       4    7    1        -0.1384090450E+00      0.3248052830E+00
          0                 3           2             4    7     1       0.1742661915E-03       4    7    1         0.9688631311E-02      0.2266578790E-01
          0                 4           1             4    7     1      -0.6934215154E-05       4    7    1        -0.3962655990E-03      0.9249090683E-03

    ------------------------------------------------
       NWT REQUIRED            4 OUTER ITERATIONS 
       AND A TOTAL OF          7 INNER ITERATIONS.
    ------------------------------------------------

 NO OUTPUT CONTROL FOR STRESS PERIOD   23   TIME STEP    1
 
 SOLVING FOR HEAD 
                                                   Max.-Head-Change                         Max.-Flux-Residual
  Residual-Control   Outer-Iter.   Inner-Iter.     Column Row Layer    Maximum-Head-Change  Column Row Layer    Maximum-Flux-Residual          L2-NORM 
          0                 1           2             4    7     1       0.2599726554E-01       4    7    1         0.1368006050E+01      0.3172466748E+01
          0                 2           2             4    7     1      -0.2528834686E-02       4    7    1        -0.1368012503E+00      0.3163938734E+00
          0                 3           2             4    7     1       0.1722041728E-03       4    7    1         0.9576085569E-02      0.2209087827E-01
          0                 4           1             4    7     1      -0.6852165670E-05       4    7    1        -0.3916624676E-03      0.9020512917E-03

    ------------------------------------------------
       NWT REQUIRED            4 OUTER ITERATIONS 
       AND A TOTAL OF          7 INNER ITERATIONS.
    ------------------------------------------------

 NO OUTPUT CONTROL FOR STRESS PERIOD   23   TIME STEP    2
 
 SOLVING FOR HEAD 
                                                   Max.-Head-Change                         Max.-Flux-Residual
  Residual-Control   Outer-Iter.   Inner-Iter.     Column Row Layer    Maximum-Head-Change  Column Row Layer    Maximum-Flux-Residual          L2-NORM 
          0                 1           2             4    7     1       0.2568438416E-01       4    7    1         0.1351816390E+01      0.3100641777E+01
          0                 2           2             4    7     1      -0.2498399934E-02       4    7    1        -0.1351822901E+00      0.3092852006E+00
          0                 3           2             4    7     1       0.1701316779E-03       4    7    1         0.9462758221E-02      0.2160014652E-01
          0                 4           1             4    7     1      -0.6769698849E-05       4    7    1        -0.3870273722E-03      0.8828433416E-03

    ------------------------------------------------
       NWT REQUIRED            4 OUTER ITERATIONS 
       AND A TOTAL OF          7 INNER ITERATIONS.
    ------------------------------------------------

 NO OUTPUT CONTROL FOR STRESS PERIOD   23   TIME STEP    3
 
 SOLVING FOR HEAD 
                                                   Max.-Head-Change                         Max.-Flux-Residual
  Residual-Control   Outer-Iter.   Inner-Iter.     Column Row Layer    Maximum-Head-Change  Column Row Layer    Maximum-Flux-Residual          L2-NORM 
          0                 1           2             4    7     1       0.2537058084E-01       4    7    1         0.1335552048E+01      0.3032553166E+01
          0                 2           2             4    7     1      -0.2467875473E-02       4    7    1        -0.1335558595E+00      0.3025558867E+00
          0                 3           2             4    7     1       0.1680530751E-03       4    7    1         0.9348908001E-02      0.2113510491E-01
          0                 4           1             4    7     1      -0.6686989684E-05       4    7    1        -0.3823709033E-03      0.8641070244E-03

    ------------------------------------------------
       NWT REQUIRED            4 OUTER ITERATIONS 
       AND A TOTAL OF          7 INNER ITERATIONS.
    ------------------------------------------------

 NO OUTPUT CONTROL FOR STRESS PERIOD   23   TIME STEP    4
 
 SOLVING FOR HEAD 
                                                   Max.-Head-Change                         Max.-Flux-Residual
  Residual-Control   Outer-Iter.   Inner-Iter.     Column Row Layer    Maximum-Head-Change  Column Row Layer    Maximum-Flux-Residual          L2-NORM 
          0                 1           2             4    7     1       0.2505620164E-01       4    7    1         0.1319232496E+01      0.2967856309E+01
          0                 2           2             4    7     1      -0.2437294966E-02       4    7    1        -0.1319239060E+00      0.2961284835E+00
          0                 3           2             4    7     1       0.1659706556E-03       4    7    1         0.9234671190E-02      0.2069068922E-01
          0                 4           1             4    7     1      -0.6604127975E-05       4    7    1        -0.3776986007E-03      0.8463034256E-03

    ------------------------------------------------
       NWT REQUIRED            4 OUTER ITERATIONS 
       AND A TOTAL OF          7 INNER ITERATIONS.
    ------------------------------------------------

 NO OUTPUT CONTROL FOR STRESS PERIOD   23   TIME STEP    5
 
 SOLVING FOR HEAD 
                                                   Max.-Head-Change                         Max.-Flux-Residual
  Residual-Control   Outer-Iter.   Inner-Iter.     Column Row Layer    Maximum-Head-Change  Column Row Layer    Maximum-Flux-Residual          L2-NORM 
          0                 1           2             4    7     1       0.2474169061E-01       4    7    1         0.1302883058E+01      0.2906253662E+01
          0                 2           2             4    7     1      -0.2406701612E-02       4    7    1        -0.1302889621E+00      0.2900184050E+00
          0                 3           2             4    7     1       0.1638873621E-03       4    7    1         0.9120225082E-02      0.2026822945E-01
          0                 4           1             4    7     1      -0.6521231958E-05       4    7    1        -0.3730177600E-03      0.8293869330E-03

    ------------------------------------------------
       NWT REQUIRED            4 OUTER ITERATIONS 
       AND A TOTAL OF          7 INNER ITERATIONS.
    ------------------------------------------------

 NO OUTPUT CONTROL FOR STRESS PERIOD   23   TIME STEP    6
 
 SOLVING FOR HEAD 
                                                   Max.-Head-Change                         Max.-Flux-Residual
  Residual-Control   Outer-Iter.   Inner-Iter.     Column Row Layer    Maximum-Head-Change  Column Row Layer    Maximum-Flux-Residual          L2-NORM 
          0                 1           2             4    7     1       0.2442746127E-01       4    7    1         0.1286526775E+01      0.2847511684E+01
          0                 2           2             4    7     1      -0.2376135635E-02       4    7    1        -0.1286533322E+00      0.2841879668E+00
          0                 3           2             4    7     1       0.1618059324E-03       4    7    1         0.9005730950E-02      0.1986422192E-01
          0                 4           1             4    7     1      -0.6438409738E-05       4    7    1        -0.3683349312E-03      0.8131230118E-03

    ------------------------------------------------
       NWT REQUIRED            4 OUTER ITERATIONS 
       AND A TOTAL OF          7 INNER ITERATIONS.
    ------------------------------------------------

 NO OUTPUT CONTROL FOR STRESS PERIOD   23   TIME STEP    7
 
 SOLVING FOR HEAD 
                                                   Max.-Head-Change                         Max.-Flux-Residual
  Residual-Control   Outer-Iter.   Inner-Iter.     Column Row Layer    Maximum-Head-Change  Column Row Layer    Maximum-Flux-Residual          L2-NORM 
          0                 1           2             4    7     1       0.2411402010E-01       4    7    1         0.1270192472E+01      0.2791387406E+01
          0                 2           2             4    7     1      -0.2345646307E-02       4    7    1        -0.1270198991E+00      0.2786137695E+00
          0                 3           2             4    7     1       0.1597297229E-03       4    7    1         0.8891390618E-02      0.1947802366E-01
          0                 4           1             4    7     1      -0.6355795323E-05       4    7    1        -0.3636584104E-03      0.7976969909E-03

    ------------------------------------------------
       NWT REQUIRED            4 OUTER ITERATIONS 
       AND A TOTAL OF          7 INNER ITERATIONS.
    ------------------------------------------------

 NO OUTPUT CONTROL FOR STRESS PERIOD   23   TIME STEP    8
 
 SOLVING FOR HEAD 
                                                   Max.-Head-Change                         Max.-Flux-Residual
  Residual-Control   Outer-Iter.   Inner-Iter.     Column Row Layer    Maximum-Head-Change  Column Row Layer    Maximum-Flux-Residual          L2-NORM 
          0                 1           2             4    7     1       0.2380157090E-01       4    7    1         0.1253891694E+01      0.2737668445E+01
          0                 2           2             4    7     1      -0.2315253452E-02       4    7    1        -0.1253898170E+00      0.2732755672E+00
          0                 3           2             4    7     1       0.1576600826E-03       4    7    1         0.8777284847E-02      0.1910777734E-01
          0                 4           1             4    7     1      -0.6273442824E-05       4    7    1        -0.3589914850E-03      0.7827353834E-03

    ------------------------------------------------
       NWT REQUIRED            4 OUTER ITERATIONS 
       AND A TOTAL OF          7 INNER ITERATIONS.
    ------------------------------------------------

 NO OUTPUT CONTROL FOR STRESS PERIOD   23   TIME STEP    9
 
 SOLVING FOR HEAD 
                                                   Max.-Head-Change                         Max.-Flux-Residual
  Residual-Control   Outer-Iter.   Inner-Iter.     Column Row Layer    Maximum-Head-Change  Column Row Layer    Maximum-Flux-Residual          L2-NORM 
          0                 1           2             4    7     1       0.2349056347E-01       4    7    1         0.1237649753E+01      0.2686184407E+01
          0                 2           2             4    7     1      -0.2285001121E-02       4    7    1        -0.1237656177E+00      0.2681662436E+00
          0                 3           2             4    7     1       0.1556000118E-03       4    7    1         0.8663590904E-02      0.1875648234E-01
          0                 4           1             4    7     1      -0.6191470361E-05       4    7    1        -0.3543413829E-03      0.7686958794E-03

    ------------------------------------------------
       NWT REQUIRED            4 OUTER ITERATIONS 
       AND A TOTAL OF          7 INNER ITERATIONS.
    ------------------------------------------------

 NO OUTPUT CONTROL FOR STRESS PERIOD   23   TIME STEP   10
 
 SOLVING FOR HEAD 
                                                   Max.-Head-Change                         Max.-Flux-Residual
  Residual-Control   Outer-Iter.   Inner-Iter.     Column Row Layer    Maximum-Head-Change  Column Row Layer    Maximum-Flux-Residual          L2-NORM 
          0                 1           2             4    7     1       0.2318113649E-01       4    7    1         0.1221475234E+01      0.2636753387E+01
          0                 2           2             4    7     1      -0.2254901924E-02       4    7    1        -0.1221481597E+00      0.2632398555E+00
          0                 3           2             4    7     1       0.1535503692E-03       4    7    1         0.8550368860E-02      0.1841092208E-01
          0                 4           1             4    7     1      -0.6109913393E-05       4    7    1        -0.3497106002E-03      0.7548008444E-03

    ------------------------------------------------
       NWT REQUIRED            4 OUTER ITERATIONS 
       AND A TOTAL OF          7 INNER ITERATIONS.
    ------------------------------------------------

 NO OUTPUT CONTROL FOR STRESS PERIOD   23   TIME STEP   11
 
 SOLVING FOR HEAD 
                                                   Max.-Head-Change                         Max.-Flux-Residual
  Residual-Control   Outer-Iter.   Inner-Iter.     Column Row Layer    Maximum-Head-Change  Column Row Layer    Maximum-Flux-Residual          L2-NORM 
          0                 1           2             4    7     1       0.2287355743E-01       4    7    1         0.1205382748E+01      0.2589244348E+01
          0                 2           2             4    7     1      -0.2224982761E-02       4    7    1        -0.1205389042E+00      0.2585123853E+00
          0                 3           2             4    7     1       0.1515129859E-03       4    7    1         0.8437720972E-02      0.1808247367E-01
          0                 4           1             4    7     1      -0.6028843760E-05       4    7    1        -0.3451032978E-03      0.7414026598E-03

    ------------------------------------------------
       NWT REQUIRED            4 OUTER ITERATIONS 
       AND A TOTAL OF          7 INNER ITERATIONS.
    ------------------------------------------------

 NO OUTPUT CONTROL FOR STRESS PERIOD   23   TIME STEP   12
 
 SOLVING FOR HEAD 
                                                   Max.-Head-Change                         Max.-Flux-Residual
  Residual-Control   Outer-Iter.   Inner-Iter.     Column Row Layer    Maximum-Head-Change  Column Row Layer    Maximum-Flux-Residual          L2-NORM 
          0                 1           2             4    7     1       0.2256819037E-01       4    7    1         0.1189393500E+01      0.2543506087E+01
          0                 2           2             4    7     1      -0.2195278755E-02       4    7    1        -0.1189399716E+00      0.2539598406E+00
          0                 3           2             4    7     1       0.1494902545E-03       4    7    1         0.8325795726E-02      0.1776587824E-01
          0                 4           1             4    7     1      -0.5948357479E-05       4    7    1        -0.3405255457E-03      0.7285669148E-03

    ------------------------------------------------
       NWT REQUIRED            4 OUTER ITERATIONS 
       AND A TOTAL OF          7 INNER ITERATIONS.
    ------------------------------------------------

 NO OUTPUT CONTROL FOR STRESS PERIOD   23   TIME STEP   13
 
 SOLVING FOR HEAD 
                                                   Max.-Head-Change                         Max.-Flux-Residual
  Residual-Control   Outer-Iter.   Inner-Iter.     Column Row Layer    Maximum-Head-Change  Column Row Layer    Maximum-Flux-Residual          L2-NORM 
          0                 1           2             4    7     1       0.2226510791E-01       4    7    1         0.1173511654E+01      0.2499428243E+01
          0                 2           2             4    7     1      -0.2165796970E-02       4    7    1        -0.1173517788E+00      0.2495702211E+00
          0                 3           2             4    7     1       0.1474826556E-03       4    7    1         0.8214622264E-02      0.1746074799E-01
          0                 4           1             4    7     1      -0.5868473316E-05       4    7    1        -0.3359785539E-03      0.7161762987E-03

    ------------------------------------------------
       NWT REQUIRED            4 OUTER ITERATIONS 
       AND A TOTAL OF          7 INNER ITERATIONS.
    ------------------------------------------------

 NO OUTPUT CONTROL FOR STRESS PERIOD   23   TIME STEP   14
 
 SOLVING FOR HEAD 
                                                   Max.-Head-Change                         Max.-Flux-Residual
  Residual-Control   Outer-Iter.   Inner-Iter.     Column Row Layer    Maximum-Head-Change  Column Row Layer    Maximum-Flux-Residual          L2-NORM 
          0                 1           2             4    7     1       0.2196449876E-01       4    7    1         0.1157748349E+01      0.2456903318E+01
          0                 2           2             4    7     1      -0.2136555762E-02       4    7    1        -0.1157754394E+00      0.2453329613E+00
          0                 3           2             4    7     1       0.1454914393E-03       4    7    1         0.8104278559E-02      0.1716560162E-01
          0                 4           1             4    7     1      -0.5789241120E-05       4    7    1        -0.3314654825E-03      0.7043166982E-03

    ------------------------------------------------
       NWT REQUIRED            4 OUTER ITERATIONS 
       AND A TOTAL OF          7 INNER ITERATIONS.
    ------------------------------------------------

 NO OUTPUT CONTROL FOR STRESS PERIOD   23   TIME STEP   15
 
 SOLVING FOR HEAD 
                                                   Max.-Head-Change                         Max.-Flux-Residual
  Residual-Control   Outer-Iter.   Inner-Iter.     Column Row Layer    Maximum-Head-Change  Column Row Layer    Maximum-Flux-Residual          L2-NORM 
          0                 1           2             4    7     1       0.2166680387E-01       4    7    1         0.1142128120E+01      0.2415835291E+01
          0                 2           2             4    7     1      -0.2107598026E-02       4    7    1        -0.1142134072E+00      0.2412397443E+00
          0                 3           2             4    7     1       0.1435195259E-03       4    7    1         0.7994936321E-02      0.1688061907E-01
          0                 4           1             4    7     1      -0.5710776709E-05       4    7    1        -0.3269933800E-03      0.6928725046E-03

    ------------------------------------------------
       NWT REQUIRED            4 OUTER ITERATIONS 
       AND A TOTAL OF          7 INNER ITERATIONS.
    ------------------------------------------------

 NO OUTPUT CONTROL FOR STRESS PERIOD   23   TIME STEP   16
 
 SOLVING FOR HEAD 
                                                   Max.-Head-Change                         Max.-Flux-Residual
  Residual-Control   Outer-Iter.   Inner-Iter.     Column Row Layer    Maximum-Head-Change  Column Row Layer    Maximum-Flux-Residual          L2-NORM 
          0                 1           2             4    7     1       0.2137175886E-01       4    7    1         0.1126636988E+01      0.2376135939E+01
          0                 2           2             4    7     1      -0.2078898046E-02       4    7    1        -0.1126642843E+00      0.2372814797E+00
          0                 3           2             4    7     1       0.1415651651E-03       4    7    1         0.7886497770E-02      0.1660511104E-01
          0                 4           1             4    7     1      -0.5633010663E-05       4    7    1        -0.3225582327E-03      0.6816646700E-03

    ------------------------------------------------
       NWT REQUIRED            4 OUTER ITERATIONS 
       AND A TOTAL OF          7 INNER ITERATIONS.
    ------------------------------------------------

 NO OUTPUT CONTROL FOR STRESS PERIOD   23   TIME STEP   17
 
 SOLVING FOR HEAD 
                                                   Max.-Head-Change                         Max.-Flux-Residual
  Residual-Control   Outer-Iter.   Inner-Iter.     Column Row Layer    Maximum-Head-Change  Column Row Layer    Maximum-Flux-Residual          L2-NORM 
          0                 1           2             4    7     1       0.2107991126E-01       4    7    1         0.1111305467E+01      0.2337719494E+01
          0                 2           2             4    7     1      -0.2050509082E-02       4    7    1        -0.1111311223E+00      0.2334501283E+00
          0                 3           2             4    7     1       0.1396319833E-03       4    7    1         0.7779176476E-02      0.1633827786E-01
          0                 4           1             4    7     1      -0.5556087697E-05       4    7    1        -0.3181687841E-03      0.6709500577E-03

    ------------------------------------------------
       NWT REQUIRED            4 OUTER ITERATIONS 
       AND A TOTAL OF          7 INNER ITERATIONS.
    ------------------------------------------------

 NO OUTPUT CONTROL FOR STRESS PERIOD   23   TIME STEP   18
 
 SOLVING FOR HEAD 
                                                   Max.-Head-Change                         Max.-Flux-Residual
  Residual-Control   Outer-Iter.   Inner-Iter.     Column Row Layer    Maximum-Head-Change  Column Row Layer    Maximum-Flux-Residual          L2-NORM 
          0                 1           2             4    7     1       0.2079110223E-01       4    7    1         0.1096125107E+01      0.2300521414E+01
          0                 2           2             4    7     1      -0.2022415685E-02       4    7    1        -0.1096130760E+00      0.2297390444E+00
          0                 3           2             4    7     1       0.1377189286E-03       4    7    1         0.7672913281E-02      0.1607959966E-01
          0                 4           1             4    7     1      -0.5479965327E-05       4    7    1        -0.3138226193E-03      0.6605383758E-03

    ------------------------------------------------
       NWT REQUIRED            4 OUTER ITERATIONS 
       AND A TOTAL OF          7 INNER ITERATIONS.
    ------------------------------------------------

 NO OUTPUT CONTROL FOR STRESS PERIOD   23   TIME STEP   19
 
 SOLVING FOR HEAD 
                                                   Max.-Head-Change                         Max.-Flux-Residual
  Residual-Control   Outer-Iter.   Inner-Iter.     Column Row Layer    Maximum-Head-Change  Column Row Layer    Maximum-Flux-Residual          L2-NORM 
          0                 1           2             4    7     1       0.2050543432E-01       4    7    1         0.1081102410E+01      0.2264468193E+01
          0                 2           2             4    7     1      -0.1994627830E-02       4    7    1        -0.1081107958E+00      0.2261411165E+00
          0                 3           2             4    7     1       0.1358266804E-03       4    7    1         0.7567753725E-02      0.1582874025E-01
          0                 4           1             4    7     1      -0.5404671071E-05       4    7    1        -0.3095215905E-03      0.6502284599E-03

    ------------------------------------------------
       NWT REQUIRED            4 OUTER ITERATIONS 
       AND A TOTAL OF          7 INNER ITERATIONS.
    ------------------------------------------------

 NO OUTPUT CONTROL FOR STRESS PERIOD   23   TIME STEP   20
 
 SOLVING FOR HEAD 
                                                   Max.-Head-Change                         Max.-Flux-Residual
  Residual-Control   Outer-Iter.   Inner-Iter.     Column Row Layer    Maximum-Head-Change  Column Row Layer    Maximum-Flux-Residual          L2-NORM 
          0                 1           2             4    7     1       0.2022326749E-01       4    7    1         0.1066257444E+01      0.2229491250E+01
          0                 2           2             4    7     1      -0.1967180534E-02       4    7    1        -0.1066262887E+00      0.2226499656E+00
          0                 3           2             4    7     1       0.1339576228E-03       4    7    1         0.7463838288E-02      0.1558522020E-01
          0                 4           1             4    7     1      -0.5330299447E-05       4    7    1        -0.3052714344E-03      0.6404172433E-03

    ------------------------------------------------
       NWT REQUIRED            4 OUTER ITERATIONS 
       AND A TOTAL OF          7 INNER ITERATIONS.
    ------------------------------------------------

 NO OUTPUT CONTROL FOR STRESS PERIOD   23   TIME STEP   21
 
 SOLVING FOR HEAD 
                                                   Max.-Head-Change                         Max.-Flux-Residual
  Residual-Control   Outer-Iter.   Inner-Iter.     Column Row Layer    Maximum-Head-Change  Column Row Layer    Maximum-Flux-Residual          L2-NORM 
          0                 1           2             4    7     1       0.1994440255E-01       4    7    1         0.1051579395E+01      0.2195547907E+01
          0                 2           2             4    7     1      -0.1940054419E-02       4    7    1        -0.1051584730E+00      0.2192610960E+00
          0                 3           2             4    7     1       0.1321104366E-03       4    7    1         0.7361091245E-02      0.1534852911E-01
          0                 4           1             4    7     1      -0.5256798418E-05       4    7    1        -0.3010690898E-03      0.6307802068E-03

    ------------------------------------------------
       NWT REQUIRED            4 OUTER ITERATIONS 
       AND A TOTAL OF          7 INNER ITERATIONS.
    ------------------------------------------------

 NO OUTPUT CONTROL FOR STRESS PERIOD   23   TIME STEP   22
 
 SOLVING FOR HEAD 
                                                   Max.-Head-Change                         Max.-Flux-Residual
  Residual-Control   Outer-Iter.   Inner-Iter.     Column Row Layer    Maximum-Head-Change  Column Row Layer    Maximum-Flux-Residual          L2-NORM 
          0                 1           2             4    7     1       0.1966904269E-01       4    7    1         0.1037080045E+01      0.2162587522E+01
          0                 2           2             4    7     1      -0.1913269252E-02       4    7    1        -0.1037085273E+00      0.2159691973E+00
          0                 3           2             4    7     1       0.1302864673E-03       4    7    1         0.7259595099E-02      0.1511917798E-01
          0                 4           1             4    7     1      -0.5184220712E-05       4    7    1        -0.2969178745E-03      0.6213921551E-03

    ------------------------------------------------
       NWT REQUIRED            4 OUTER ITERATIONS 
       AND A TOTAL OF          7 INNER ITERATIONS.
    ------------------------------------------------

 NO OUTPUT CONTROL FOR STRESS PERIOD   23   TIME STEP   23
 
 SOLVING FOR HEAD 
                                                   Max.-Head-Change                         Max.-Flux-Residual
  Residual-Control   Outer-Iter.   Inner-Iter.     Column Row Layer    Maximum-Head-Change  Column Row Layer    Maximum-Flux-Residual          L2-NORM 
          0                 1           2             4    7     1       0.1939723463E-01       4    7    1         0.1022762566E+01      0.2130538250E+01
          0                 2           2             4    7     1      -0.1886829578E-02       4    7    1        -0.1022767686E+00      0.2127671860E+00
          0                 3           1             4    7     1       0.1284860261E-03       4    7    1         0.7159372044E-02      0.1489528493E-01
          0                 4           1             4    7     1      -0.5112580606E-05       4    7    1        -0.2928187530E-03      0.6120508922E-03

    ------------------------------------------------
       NWT REQUIRED            4 OUTER ITERATIONS 
       AND A TOTAL OF          6 INNER ITERATIONS.
    ------------------------------------------------

 NO OUTPUT CONTROL FOR STRESS PERIOD   23   TIME STEP   24
 
 SOLVING FOR HEAD 
                                                   Max.-Head-Change                         Max.-Flux-Residual
  Residual-Control   Outer-Iter.   Inner-Iter.     Column Row Layer    Maximum-Head-Change  Column Row Layer    Maximum-Flux-Residual          L2-NORM 
          0                 1           2             4    7     1       0.1912901872E-01       4    7    1         0.1008629383E+01      0.2099383192E+01
          0                 2           2             4    7     1      -0.1860739322E-02       4    7    1        -0.1008634394E+00      0.2096536016E+00
          0                 3           1             4    7     1       0.1267093780E-03       4    7    1         0.7060439062E-02      0.1467820363E-01
          0                 4           1             4    7     1      -0.5041885927E-05       4    7    1        -0.2887723911E-03      0.6034323570E-03

    ------------------------------------------------
       NWT REQUIRED            4 OUTER ITERATIONS 
       AND A TOTAL OF          6 INNER ITERATIONS.
    ------------------------------------------------

 NO OUTPUT CONTROL FOR STRESS PERIOD   23   TIME STEP   25
 
 SOLVING FOR HEAD 
                                                   Max.-Head-Change                         Max.-Flux-Residual
  Residual-Control   Outer-Iter.   Inner-Iter.     Column Row Layer    Maximum-Head-Change  Column Row Layer    Maximum-Flux-Residual          L2-NORM 
          0                 1           2             4    7     1       0.1886442982E-01       4    7    1         0.9946825871E+00      0.2069060912E+01
          0                 2           2             4    7     1      -0.1835001876E-02       4    7    1        -0.9946874904E-01      0.2066229506E+00
          0                 3           1             4    7     1       0.1249567549E-03       4    7    1         0.6962810797E-02      0.1446647774E-01
          0                 4           1             4    7     1      -0.4972147383E-05       4    7    1        -0.2847793767E-03      0.5948697996E-03

    ------------------------------------------------
       NWT REQUIRED            4 OUTER ITERATIONS 
       AND A TOTAL OF          6 INNER ITERATIONS.
    ------------------------------------------------

 NO OUTPUT CONTROL FOR STRESS PERIOD   23   TIME STEP   26
 
 SOLVING FOR HEAD 
                                                   Max.-Head-Change                         Max.-Flux-Residual
  Residual-Control   Outer-Iter.   Inner-Iter.     Column Row Layer    Maximum-Head-Change  Column Row Layer    Maximum-Flux-Residual          L2-NORM 
          0                 1           2             4    7     1       0.1860349160E-01       4    7    1         0.9809239894E+00      0.2039555878E+01
          0                 2           2             4    7     1      -0.1809619543E-02       4    7    1        -0.9809287852E-01      0.2036741627E+00
          0                 3           1             4    7     1       0.1232283139E-03       4    7    1         0.6866499932E-02      0.1426060166E-01
          0                 4           1             4    7     1      -0.4903371421E-05       4    7    1        -0.2808402637E-03      0.5865488111E-03

    ------------------------------------------------
       NWT REQUIRED            4 OUTER ITERATIONS 
       AND A TOTAL OF          6 INNER ITERATIONS.
    ------------------------------------------------

 NO OUTPUT CONTROL FOR STRESS PERIOD   23   TIME STEP   27
 
 SOLVING FOR HEAD 
                                                   Max.-Head-Change                         Max.-Flux-Residual
  Residual-Control   Outer-Iter.   Inner-Iter.     Column Row Layer    Maximum-Head-Change  Column Row Layer    Maximum-Flux-Residual          L2-NORM 
          0                 1           2             4    7     1       0.1834621559E-01       4    7    1         0.9673548170E+00      0.2010809916E+01
          0                 2           2             4    7     1      -0.1784593444E-02       4    7    1        -0.9673595060E-01      0.2008007039E+00
          0                 3           1             4    7     1       0.1215241308E-03       4    7    1         0.6771515024E-02      0.1405986802E-01
          0                 4           1             4    7     1      -0.4835560228E-05       4    7    1        -0.2769553780E-03      0.5783890279E-03

    ------------------------------------------------
       NWT REQUIRED            4 OUTER ITERATIONS 
       AND A TOTAL OF          6 INNER ITERATIONS.
    ------------------------------------------------

 NO OUTPUT CONTROL FOR STRESS PERIOD   23   TIME STEP   28
 
 SOLVING FOR HEAD 
                                                   Max.-Head-Change                         Max.-Flux-Residual
  Residual-Control   Outer-Iter.   Inner-Iter.     Column Row Layer    Maximum-Head-Change  Column Row Layer    Maximum-Flux-Residual          L2-NORM 
          0                 1           2             4    7     1       0.1809261651E-01       4    7    1         0.9539756686E+00      0.1982794387E+01
          0                 2           2             4    7     1      -0.1759925011E-02       4    7    1        -0.9539802518E-01      0.1980008610E+00
          0                 3           1             4    7     1       0.1198443038E-03       4    7    1         0.6677860325E-02      0.1386444468E-01
          0                 4           1             4    7     1      -0.4768718295E-05       4    7    1        -0.2731248858E-03      0.5704905161E-03

    ------------------------------------------------
       NWT REQUIRED            4 OUTER ITERATIONS 
       AND A TOTAL OF          6 INNER ITERATIONS.
    ------------------------------------------------

 NO OUTPUT CONTROL FOR STRESS PERIOD   23   TIME STEP   29
 
 SOLVING FOR HEAD 
                                                   Max.-Head-Change                         Max.-Flux-Residual
  Residual-Control   Outer-Iter.   Inner-Iter.     Column Row Layer    Maximum-Head-Change  Column Row Layer    Maximum-Flux-Residual          L2-NORM 
          0                 1           2             4    7     1       0.1784283241E-01       4    7    1         0.9407946844E+00      0.1955501854E+01
          0                 2           2             4    7     1      -0.1735627673E-02       4    7    1        -0.9407991626E-01      0.1952744118E+00
          0                 3           1             4    7     1       0.1181897464E-03       4    7    1         0.6585592746E-02      0.1367400751E-01
          0                 4           1             4    7     1      -0.4702881886E-05       4    7    1        -0.2693511324E-03      0.5628311716E-03

    ------------------------------------------------
       NWT REQUIRED            4 OUTER ITERATIONS 
       AND A TOTAL OF          6 INNER ITERATIONS.
    ------------------------------------------------

 NO OUTPUT CONTROL FOR STRESS PERIOD   23   TIME STEP   30



 STREAM LISTING     PERIOD     23   STEP       30

 LAYER ROW COL. STREAM  RCH.  FLOW INTO     FLOW TO   FLOW OUT OF   OVRLND.     DIRECT     STREAM       STREAM     STREAM     STREAM   STREAMBED  STREAMBED
                SEG.NO.  NO.  STRM. RCH.    AQUIFER    STRM. RCH.    RUNOFF     PRECIP       ET          HEAD       DEPTH      WIDTH   CONDCTNC.   GRADIENT

   1    1    1     1     1    2.2000E+01  2.3088E-01   2.1769E+01  0.000E+00  0.000E+00  0.000E+00  1.09418E+03  1.132E+00  1.242E+01  5.588E-02  1.377E+00
   1    2    2     1     2    2.1769E+01  3.5689E-01   2.1412E+01  0.000E+00  0.000E+00  0.000E+00  1.08919E+03  1.127E+00  1.235E+01  8.648E-02  1.376E+00
   1    3    3     1     3    2.1412E+01  3.0372E-01   2.1109E+01  0.000E+00  0.000E+00  0.000E+00  1.08354E+03  1.121E+00  1.228E+01  7.369E-02  1.374E+00
   1    3    4     1     4    2.1109E+01  2.7914E-01   2.0829E+01  0.000E+00  0.000E+00  0.000E+00  1.07852E+03  1.117E+00  1.222E+01  6.781E-02  1.372E+00
   1    4    5     2     1    1.8829E+01  3.1306E-01   1.8516E+01  0.000E+00  0.000E+00  0.000E+00  1.07295E+03  1.014E+00  1.200E+01  7.800E-02  1.338E+00
   1    5    6     2     2    1.8516E+01  2.4027E-01   1.8276E+01  0.000E+00  0.000E+00  0.000E+00  1.06751E+03  1.005E+00  1.200E+01  6.000E-02  1.335E+00
   1    6    6     2     3    1.8276E+01  2.3980E-01   1.8036E+01  0.000E+00  0.000E+00  0.000E+00  1.06279E+03  9.967E-01  1.200E+01  6.000E-02  1.332E+00
   1    7    6     2     4    1.8036E+01  2.3933E-01   1.7797E+01  0.000E+00  0.000E+00  0.000E+00  1.05806E+03  9.888E-01  1.200E+01  6.000E-02  1.330E+00
   1    8    6     2     5    1.7797E+01  2.3885E-01   1.7558E+01  0.000E+00  0.000E+00  0.000E+00  1.05334E+03  9.808E-01  1.200E+01  6.000E-02  1.327E+00
   1    3    5     3     1    2.0000E+00  2.8252E-01   1.7175E+00  0.000E+00  0.000E+00  0.000E+00  1.07555E+03  1.909E+00  9.636E+00  7.227E-02  1.955E+00
   1    3    6     3     2    1.7175E+00  2.4905E-01   1.4684E+00  0.000E+00  0.000E+00  0.000E+00  1.07264E+03  1.727E+00  8.909E+00  6.682E-02  1.864E+00
   1    3    7     3     3    1.4684E+00  1.9718E-01   1.2712E+00  0.000E+00  0.000E+00  0.000E+00  1.06987E+03  1.555E+00  8.218E+00  5.547E-02  1.777E+00
   1    4    8     3     4    1.2712E+00  2.2567E-01   1.0456E+00  0.000E+00  0.000E+00  0.000E+00  1.06682E+03  1.364E+00  7.455E+00  6.709E-02  1.682E+00
   1    5    8     3     5    1.0456E+00  1.5790E-01   8.8768E-01  0.000E+00  0.000E+00  0.000E+00  1.06362E+03  1.164E+00  6.655E+00  4.991E-02  1.582E+00
   1    6    8     3     6    8.8768E-01  5.5980E-02   8.3170E-01  0.000E+00  0.000E+00  0.000E+00  1.06158E+03  1.036E+00  6.145E+00  1.844E-02  1.518E+00
   1    5   10     4     1    1.0000E+01  9.0919E-02   9.9091E+00  0.000E+00  0.000E+00  0.000E+00  1.07836E+03  6.368E-01  1.000E+01  2.500E-02  1.212E+00
   1    5    9     4     2    9.9091E+00  1.8158E-01   9.7275E+00  0.000E+00  0.000E+00  0.000E+00  1.07154E+03  6.315E-01  1.000E+01  5.000E-02  1.211E+00
   1    6    8     4     3    9.7275E+00  1.2689E-01   9.6006E+00  0.000E+00  0.000E+00  0.000E+00  1.06381E+03  6.256E-01  1.000E+01  3.500E-02  1.209E+00
   1    6    8     5     1    1.0432E+01  2.2686E-01   1.0205E+01  0.000E+00  0.000E+00  0.000E+00  1.05868E+03  6.790E-01  1.542E+01  6.166E-02  1.226E+00
   1    7    7     5     2    1.0205E+01  2.7894E-01   9.9265E+00  0.000E+00  0.000E+00  0.000E+00  1.05417E+03  6.732E-01  1.519E+01  7.594E-02  1.224E+00
   1    8    7     5     3    9.9265E+00  1.9221E-01   9.7343E+00  0.000E+00  0.000E+00  0.000E+00  1.04992E+03  6.676E-01  1.497E+01  5.241E-02  1.223E+00
   1    8    6     5     4    9.7343E+00  1.3577E-01   9.5985E+00  0.000E+00  0.000E+00  0.000E+00  1.04691E+03  6.637E-01  1.482E+01  3.706E-02  1.221E+00
   1    9    6     6     1    2.7157E+01  2.5677E-01   2.6900E+01  0.000E+00  0.000E+00  0.000E+00  1.04401E+03  1.280E+00  1.200E+01  6.000E-02  1.427E+00
   1   10    7     6     2    2.6900E+01  2.5634E-01   2.6643E+01  0.000E+00  0.000E+00  0.000E+00  1.03945E+03  1.272E+00  1.200E+01  6.000E-02  1.424E+00
   1   11    7     6     3    2.6643E+01  2.5590E-01   2.6388E+01  0.000E+00  0.000E+00  0.000E+00  1.03490E+03  1.265E+00  1.200E+01  6.000E-02  1.422E+00
   1   12    7     6     4    2.6388E+01  2.5546E-01   2.6132E+01  0.000E+00  0.000E+00  0.000E+00  1.03035E+03  1.258E+00  1.200E+01  6.000E-02  1.419E+00
   1   13    7     6     5    2.6132E+01  3.5189E-03   2.6129E+01  0.000E+00  0.000E+00  0.000E+00  1.02716E+03  1.254E+00  1.200E+01  2.400E-02  4.887E-02
   1   14    9     7     1    1.5000E+02  1.3352E+00   1.4866E+02  0.000E+00  0.000E+00  0.000E+00  1.03987E+03  2.288E+00  5.529E+01  5.593E-01  7.958E-01
   1   13    8     7     2    1.4866E+02  1.8454E+00   1.4682E+02  0.000E+00  0.000E+00  0.000E+00  1.03478E+03  2.279E+00  5.526E+01  6.148E-01  1.001E+00
   1   13    7     7     3    1.4682E+02  1.4929E+00   1.4533E+02  0.000E+00  0.000E+00  0.000E+00  1.02969E+03  2.270E+00  5.522E+01  5.584E-01  8.911E-01
   1   13    6     8     1    1.7146E+02  9.7006E-01   1.7049E+02  0.000E+00  0.000E+00  0.000E+00  1.02483E+03  2.959E+00  4.290E+01  4.371E-01  7.397E-01
   1   13    5     8     2    1.7049E+02  2.3158E-01   1.7025E+02  0.000E+00  0.000E+00  0.000E+00  1.01858E+03  2.955E+00  4.284E+01  4.366E-01  1.768E-01
   1   13    4     8     3    1.7025E+02 -2.3169E+00   1.7257E+02  0.000E+00  0.000E+00  0.000E+00  1.01234E+03  2.961E+00  4.294E+01  4.376E+00 -1.765E-01
   1   13    3     8     4    1.7257E+02 -3.5855E+00   1.7616E+02  0.000E+00  0.000E+00  0.000E+00  1.00611E+03  2.980E+00  4.322E+01  4.404E+00 -2.714E-01
   1   13    2     8     5    1.7616E+02 -2.5161E+00   1.7867E+02  0.000E+00  0.000E+00  0.000E+00  9.99875E+02  3.000E+00  4.350E+01  4.433E+00 -1.892E-01
   1   13    1     8     6    1.7867E+02 -1.8540E+00   1.8053E+02  0.000E+00  0.000E+00  0.000E+00  9.94889E+02  3.014E+00  4.370E+01  2.672E+00 -2.313E-01





UNSATURATED ZONE PACKAGE VOLUMETRIC BUDGET FOR  TIME STEP    30 STRESS PERIOD   23
  ------------------------------------------------------------------------------



     CUMULATIVE VOLUMES      L**3       RATES FOR THIS TIME STEP      L**3/T
     ------------------                 ------------------------

           IN:                                      IN:
           ---                                      ---
        INFILTRATION =   367663096.3597          INFILTRATION =           0.8475

          OUT:                                     OUT:
          ----                                     ----
              UZF ET =   197248115.3609                UZF ET =           0.0218
        UZF RECHARGE =    11248122.1035          UZF RECHARGE =           0.0369

            IN - OUT =   159166858.8954              IN - OUT =           0.7888

          STORAGE:                                 STORAGE:
          --------                                 --------
      STORAGE CHANGE =   159290321.2843        STORAGE CHANGE =           0.7888

 PERCENT DISCREPANCY IS DIFFERENCE BETWEEN IN-OUT MINUS CHANGE IN STORAGE
 DIVIDED BY THE AVERAGE OF IN AND OUT TIMES 100

 PERCENT DISCREPANCY =          -0.01     PERCENT DISCREPANCY =          -0.00






1
  VOLUMETRIC BUDGET FOR ENTIRE MODEL AT END OF TIME STEP   30, STRESS PERIOD  23
  ------------------------------------------------------------------------------

     CUMULATIVE VOLUMES      L**3       RATES FOR THIS TIME STEP      L**3/T
     ------------------                 ------------------------

           IN:                                      IN:
           ---                                      ---
               AWU WELLS =   318590336.0000                 AWU WELLS =           0.0000
      DIVERSION SEGMENTS =           0.0000        DIVERSION SEGMENTS =           0.0000
           GW IRRIGATION =           0.0000             GW IRRIGATION =           0.0000
           SW IRRIGATION =           0.0000             SW IRRIGATION =           0.0000
        SYSTEM LOSSES GW =           0.0000          SYSTEM LOSSES GW =           0.0000
        SYSTEM LOSSES SW =           0.0000          SYSTEM LOSSES SW =           0.0000

                TOTAL IN =   318590336.0000                  TOTAL IN =           0.0000

          OUT:                                     OUT:
          ----                                     ----
               AWU WELLS =           0.0000                 AWU WELLS =           0.0000
      DIVERSION SEGMENTS =           0.0000        DIVERSION SEGMENTS =           0.0000
           GW IRRIGATION =   318590336.0000             GW IRRIGATION =           0.0000
           SW IRRIGATION =           0.0000             SW IRRIGATION =           0.0000
        SYSTEM LOSSES GW =           0.0000          SYSTEM LOSSES GW =           0.0000
        SYSTEM LOSSES SW =           0.0000          SYSTEM LOSSES SW =           0.0000

               TOTAL OUT =   318590336.0000                 TOTAL OUT =           0.0000

                IN - OUT =           0.0000                  IN - OUT =           0.0000

     PERCENT DISCREPANCY =           0.00         PERCENT DISCREPANCY =           0.00



1
  VOLUMETRIC BUDGET FOR ENTIRE MODEL AT END OF TIME STEP   30, STRESS PERIOD  23
  ------------------------------------------------------------------------------

     CUMULATIVE VOLUMES      L**3       RATES FOR THIS TIME STEP      L**3/T
     ------------------                 ------------------------

           IN:                                      IN:
           ---                                      ---
             STORAGE     =   534328160.0000               STORAGE     =           4.4984
       CONSTANT HEAD     =           0.0000         CONSTANT HEAD     =           0.0000
     HEAD DEP BOUNDS     =    16540015.0000       HEAD DEP BOUNDS     =           0.2857
      STREAM LEAKAGE     =   732502336.0000        STREAM LEAKAGE     =          11.7466
        UZF RECHARGE     =    11248124.0000          UZF RECHARGE     =       3.6888E-02
               GW ET     =           0.0000                 GW ET     =           0.0000
     SURFACE LEAKAGE     =           0.0000       SURFACE LEAKAGE     =           0.0000
           AWU WELLS     =           0.0000             AWU WELLS     =           0.0000

                TOTAL IN =  1294618624.0000                  TOTAL IN =          16.5676

          OUT:                                     OUT:
          ----                                     ----
             STORAGE     =   309562944.0000               STORAGE     =           5.9971
       CONSTANT HEAD     =           0.0000         CONSTANT HEAD     =           0.0000
     HEAD DEP BOUNDS     =    16770335.0000       HEAD DEP BOUNDS     =           0.2881
      STREAM LEAKAGE     =   538825280.0000        STREAM LEAKAGE     =          10.2726
        UZF RECHARGE     =           0.0000          UZF RECHARGE     =           0.0000
               GW ET     =   110873744.0000                 GW ET     =       9.8207E-03
     SURFACE LEAKAGE     =           0.0000       SURFACE LEAKAGE     =           0.0000
           AWU WELLS     =   318590336.0000             AWU WELLS     =           0.0000

               TOTAL OUT =  1294622592.0000                 TOTAL OUT =          16.5676

                IN - OUT =       -3968.0000                  IN - OUT =       1.5259E-05

     PERCENT DISCREPANCY =          -0.00         PERCENT DISCREPANCY =           0.00






         TIME SUMMARY AT END OF TIME STEP   30 IN STRESS PERIOD   23
                    SECONDS     MINUTES      HOURS       DAYS        YEARS
                    -----------------------------------------------------------
   TIME STEP LENGTH  87600.      1460.0      24.333      1.0139     2.77588E-03
 STRESS PERIOD TIME 2.62800E+06  43800.      730.00      30.417     8.32763E-02
         TOTAL TIME 5.79024E+07 9.65040E+05  16084.      670.17      1.8348    
1
1
                            STRESS PERIOD NO.   24, LENGTH =   2628000.    
                            -----------------------------------------------

                              NUMBER OF TIME STEPS =    30

                               MULTIPLIER FOR DELT =     1.000

                            INITIAL TIME STEP SIZE =   87600.00    

 REUSING NON-PARAMETER GHB CELLS FROM LAST STRESS PERIOD

      2 GHB CELLS

 REUSING STREAM SEGMENT DATA FROM LAST STRESS PERIOD



            AREAL INFILTRATION RATE
 READING ON UNIT   19 WITH FORMAT: (10F4.0)            

            1           2           3           4           5           6           7           8           9          10
 ........................................................................................................................
   1   1.0000E-10  2.0000E-10   0.000       0.000       0.000       0.000       0.000       0.000       0.000       0.000    
   2   2.0000E-10  1.0000E-10  2.0000E-10   0.000       0.000      8.0000E-10  8.0000E-10  5.0000E-10   0.000       0.000    
   3    0.000      5.0000E-10  1.0000E-10  1.0000E-10  8.0000E-10  8.0000E-10  5.0000E-10  5.0000E-10   0.000       0.000    
   4   8.0000E-10  5.0000E-10  1.0000E-10  1.0000E-10  1.0000E-10  1.0000E-10  1.0000E-10  1.0000E-10  2.0000E-10   0.000    
   5   8.0000E-10  5.0000E-10  1.0000E-10  1.0000E-10  1.0000E-10  1.0000E-10  1.0000E-10  1.0000E-10  1.0000E-10  1.0000E-10
   6   8.0000E-10  5.0000E-10  5.0000E-10  2.0000E-10  2.0000E-10  1.0000E-10  1.0000E-10  1.0000E-10  1.0000E-10  5.0000E-10
   7   8.0000E-10  5.0000E-10  5.0000E-10  2.0000E-10  2.0000E-10  1.0000E-10  1.0000E-10  2.0000E-10  2.0000E-10   0.000    
   8    0.000      5.0000E-10  5.0000E-10  2.0000E-10  2.0000E-10  1.0000E-10  1.0000E-10  2.0000E-10  5.0000E-10   0.000    
   9    0.000      5.0000E-10  5.0000E-10  2.0000E-10  2.0000E-10  1.0000E-10  1.0000E-10  2.0000E-10  5.0000E-10   0.000    
  10    0.000      5.0000E-10  5.0000E-10  2.0000E-10  2.0000E-10  1.0000E-10  1.0000E-10  2.0000E-10  5.0000E-10  8.0000E-10
  11    0.000      1.0000E-10  1.0000E-10  1.0000E-10  1.0000E-10  1.0000E-10  1.0000E-10  2.0000E-10  5.0000E-10   0.000    
  12   1.0000E-10  1.0000E-10  1.0000E-10  1.0000E-10  1.0000E-10  1.0000E-10  1.0000E-10  1.0000E-10  2.0000E-10   0.000    
  13   1.0000E-10  1.0000E-10  2.0000E-10  2.0000E-10  2.0000E-10  2.0000E-10  2.0000E-10  1.0000E-10  1.0000E-10   0.000    
  14    0.000      2.0000E-10  5.0000E-10  5.0000E-10  5.0000E-10  5.0000E-10  5.0000E-10  2.0000E-10  1.0000E-10   0.000    
  15    0.000       0.000      8.0000E-10  8.0000E-10  8.0000E-10  8.0000E-10   0.000       0.000       0.000       0.000    

                  ET RATE =  1.000000E-10

 USING ET EXTINCTION DEPTH FROM PREVIOUS STRESS PERIOD. CURRENT PERIOD IS:      24

 USING EXTINCTION WATER CONTENT FROM PREVIOUS STRESS PERIOD. CURRENT PERIOD IS:      24

 PROCESSING AWU STRESS PERIOD DATA

 READING AWU STRESS PERIOD DATA

 READING IRRIGATION WELL

 END PROCESSING AWU STRESS PERIOD DATA OPTIONS
 
 SOLVING FOR HEAD 
                                                   Max.-Head-Change                         Max.-Flux-Residual
  Residual-Control   Outer-Iter.   Inner-Iter.     Column Row Layer    Maximum-Head-Change  Column Row Layer    Maximum-Flux-Residual          L2-NORM 
          0                 1           2             4    7     1       0.1759657928E-01       4    7    1         0.9277968987E+00      0.1928867656E+01
          0                 2           2             4    7     1      -0.1711673803E-02       4    7    1        -0.9278012730E-01      0.1926114968E+00
          0                 3           1             4    7     1       0.1165585780E-03       4    7    1         0.6494607573E-02      0.1348792121E-01
          0                 4           1             4    7     1      -0.4637976283E-05       4    7    1        -0.2656298207E-03      0.5552088927E-03

    ------------------------------------------------
       NWT REQUIRED            4 OUTER ITERATIONS 
       AND A TOTAL OF          6 INNER ITERATIONS.
    ------------------------------------------------

 NO OUTPUT CONTROL FOR STRESS PERIOD   24   TIME STEP    1
 
 SOLVING FOR HEAD 
                                                   Max.-Head-Change                         Max.-Flux-Residual
  Residual-Control   Outer-Iter.   Inner-Iter.     Column Row Layer    Maximum-Head-Change  Column Row Layer    Maximum-Flux-Residual          L2-NORM 
          0                 1           2             4    7     1       0.1735412186E-01       4    7    1         0.9149970802E+00      0.1901837851E+01
          0                 2           2             4    7     1      -0.1688089156E-02       4    7    1        -0.9150013522E-01      0.1899270430E+00
          0                 3           1             4    7     1       0.1149525527E-03       4    7    1         0.6405008193E-02      0.1330146898E-01
          0                 4           1             4    7     1      -0.4574070794E-05       4    7    1        -0.2619652105E-03      0.5477882997E-03

    ------------------------------------------------
       NWT REQUIRED            4 OUTER ITERATIONS 
       AND A TOTAL OF          6 INNER ITERATIONS.
    ------------------------------------------------

 NO OUTPUT CONTROL FOR STRESS PERIOD   24   TIME STEP    2
 
 SOLVING FOR HEAD 
                                                   Max.-Head-Change                         Max.-Flux-Residual
  Residual-Control   Outer-Iter.   Inner-Iter.     Column Row Layer    Maximum-Head-Change  Column Row Layer    Maximum-Flux-Residual          L2-NORM 
          0                 1           2             4    7     1       0.1711543599E-01       4    7    1         0.9023942141E+00      0.1876544592E+01
          0                 2           2             4    7     1      -0.1664871380E-02       4    7    1        -0.9023983852E-01      0.1873983223E+00
          0                 3           1             4    7     1       0.1133715100E-03       4    7    1         0.6316787481E-02      0.1312470296E-01
          0                 4           1             4    7     1      -0.4511160123E-05       4    7    1        -0.2583569976E-03      0.5405774946E-03

    ------------------------------------------------
       NWT REQUIRED            4 OUTER ITERATIONS 
       AND A TOTAL OF          6 INNER ITERATIONS.
    ------------------------------------------------

 NO OUTPUT CONTROL FOR STRESS PERIOD   24   TIME STEP    3
 
 SOLVING FOR HEAD 
                                                   Max.-Head-Change                         Max.-Flux-Residual
  Residual-Control   Outer-Iter.   Inner-Iter.     Column Row Layer    Maximum-Head-Change  Column Row Layer    Maximum-Flux-Residual          L2-NORM 
          0                 1           2             4    7     1       0.1688036866E-01       4    7    1         0.8899796688E+00      0.1851944633E+01
          0                 2           2             4    7     1      -0.1642005591E-02       4    7    1        -0.8899837407E-01      0.1849366254E+00
          0                 3           1             4    7     1       0.1118144356E-03       4    7    1         0.6229885009E-02      0.1295256713E-01
          0                 4           1             4    7     1      -0.4449202478E-05       4    7    1        -0.2548026735E-03      0.5335243143E-03

    ------------------------------------------------
       NWT REQUIRED            4 OUTER ITERATIONS 
       AND A TOTAL OF          6 INNER ITERATIONS.
    ------------------------------------------------

 NO OUTPUT CONTROL FOR STRESS PERIOD   24   TIME STEP    4
 
 SOLVING FOR HEAD 
                                                   Max.-Head-Change                         Max.-Flux-Residual
  Residual-Control   Outer-Iter.   Inner-Iter.     Column Row Layer    Maximum-Head-Change  Column Row Layer    Maximum-Flux-Residual          L2-NORM 
          0                 1           2             4    7     1       0.1664888914E-01       4    7    1         0.8777528815E+00      0.1827885704E+01
          0                 2           2             4    7     1      -0.1619488801E-02       4    7    1        -0.8777568556E-01      0.1825289715E+00
          0                 3           1             4    7     1       0.1102811276E-03       4    7    1         0.6144296889E-02      0.1278421918E-01
          0                 4           1             4    7     1      -0.4388190836E-05       4    7    1        -0.2513021179E-03      0.5266482275E-03

    ------------------------------------------------
       NWT REQUIRED            4 OUTER ITERATIONS 
       AND A TOTAL OF          6 INNER ITERATIONS.
    ------------------------------------------------

 NO OUTPUT CONTROL FOR STRESS PERIOD   24   TIME STEP    5
 
 SOLVING FOR HEAD 
                                                   Max.-Head-Change                         Max.-Flux-Residual
  Residual-Control   Outer-Iter.   Inner-Iter.     Column Row Layer    Maximum-Head-Change  Column Row Layer    Maximum-Flux-Residual          L2-NORM 
          0                 1           2             4    7     1       0.1642111782E-01       4    7    1         0.8657196364E+00      0.1804389324E+01
          0                 2           2             4    7     1      -0.1597332720E-02       4    7    1        -0.8657235144E-01      0.1801774498E+00
          0                 3           1             4    7     1       0.1087723821E-03       4    7    1         0.6060063554E-02      0.1261969697E-01
          0                 4           1             4    7     1      -0.4328156513E-05       4    7    1        -0.2478569752E-03      0.5198728075E-03

    ------------------------------------------------
       NWT REQUIRED            4 OUTER ITERATIONS 
       AND A TOTAL OF          6 INNER ITERATIONS.
    ------------------------------------------------

 NO OUTPUT CONTROL FOR STRESS PERIOD   24   TIME STEP    6
 
 SOLVING FOR HEAD 
                                                   Max.-Head-Change                         Max.-Flux-Residual
  Residual-Control   Outer-Iter.   Inner-Iter.     Column Row Layer    Maximum-Head-Change  Column Row Layer    Maximum-Flux-Residual          L2-NORM 
          0                 1           2             4    7     1       0.1619701674E-01       4    7    1         0.8538788024E+00      0.1781408400E+01
          0                 2           2             4    7     1      -0.1575533656E-02       4    7    1        -0.8538825860E-01      0.1778773479E+00
          0                 3           1             4    7     1       0.1072879479E-03       4    7    1         0.5977177103E-02      0.1245885860E-01
          0                 4           1             4    7     1      -0.4269089492E-05       4    7    1        -0.2444669140E-03      0.5134584110E-03

    ------------------------------------------------
       NWT REQUIRED            4 OUTER ITERATIONS 
       AND A TOTAL OF          6 INNER ITERATIONS.
    ------------------------------------------------

 NO OUTPUT CONTROL FOR STRESS PERIOD   24   TIME STEP    7
 
 SOLVING FOR HEAD 
                                                   Max.-Head-Change                         Max.-Flux-Residual
  Residual-Control   Outer-Iter.   Inner-Iter.     Column Row Layer    Maximum-Head-Change  Column Row Layer    Maximum-Flux-Residual          L2-NORM 
          0                 1           2             4    7     1       0.1597642005E-01       4    7    1         0.8422210315E+00      0.1758936269E+01
          0                 2           2             4    7     1      -0.1554075475E-02       4    7    1        -0.8422247224E-01      0.1756278890E+00
          0                 3           1             4    7     1       0.1058267264E-03       4    7    1         0.5895572109E-02      0.1230129802E-01
          0                 4           1             4    7     1      -0.4210946139E-05       4    7    1        -0.2411292453E-03      0.5069358875E-03

    ------------------------------------------------
       NWT REQUIRED            4 OUTER ITERATIONS 
       AND A TOTAL OF          6 INNER ITERATIONS.
    ------------------------------------------------

 NO OUTPUT CONTROL FOR STRESS PERIOD   24   TIME STEP    8
 
 SOLVING FOR HEAD 
                                                   Max.-Head-Change                         Max.-Flux-Residual
  Residual-Control   Outer-Iter.   Inner-Iter.     Column Row Layer    Maximum-Head-Change  Column Row Layer    Maximum-Flux-Residual          L2-NORM 
          0                 1           2             4    7     1       0.1575942104E-01       4    7    1         0.8307524745E+00      0.1736948313E+01
          0                 2           2             4    7     1      -0.1532967255E-02       4    7    1        -0.8307560747E-01      0.1734269003E+00
          0                 3           1             4    7     1       0.1043893363E-03       4    7    1         0.5815291628E-02      0.1214726749E-01
          0                 4           1             4    7     1      -0.4153750978E-05       4    7    1        -0.2378457764E-03      0.5007006409E-03

    ------------------------------------------------
       NWT REQUIRED            4 OUTER ITERATIONS 
       AND A TOTAL OF          6 INNER ITERATIONS.
    ------------------------------------------------

 NO OUTPUT CONTROL FOR STRESS PERIOD   24   TIME STEP    9
 
 SOLVING FOR HEAD 
                                                   Max.-Head-Change                         Max.-Flux-Residual
  Residual-Control   Outer-Iter.   Inner-Iter.     Column Row Layer    Maximum-Head-Change  Column Row Layer    Maximum-Flux-Residual          L2-NORM 
          0                 1           2             4    7     1       0.1554598542E-01       4    7    1         0.8194705948E+00      0.1715448378E+01
          0                 2           2             4    7     1      -0.1512205657E-02       4    7    1        -0.8194741059E-01      0.1712748630E+00
          0                 3           1             4    7     1       0.1029755497E-03       4    7    1         0.5736317895E-02      0.1199661331E-01
          0                 4           1             4    7     1      -0.4097495142E-05       4    7    1        -0.2346157419E-03      0.4945297077E-03

    ------------------------------------------------
       NWT REQUIRED            4 OUTER ITERATIONS 
       AND A TOTAL OF          6 INNER ITERATIONS.
    ------------------------------------------------

 NO OUTPUT CONTROL FOR STRESS PERIOD   24   TIME STEP   10
 
 SOLVING FOR HEAD 
                                                   Max.-Head-Change                         Max.-Flux-Residual
  Residual-Control   Outer-Iter.   Inner-Iter.     Column Row Layer    Maximum-Head-Change  Column Row Layer    Maximum-Flux-Residual          L2-NORM 
          0                 1           2             4    7     1       0.1533593506E-01       4    7    1         0.8083662327E+00      0.1694396651E+01
          0                 2           2             4    7     1      -0.1491773355E-02       4    7    1        -0.8083696566E-01      0.1691682794E+00
          0                 3           1             4    7     1       0.1015841873E-03       4    7    1         0.5658586809E-02      0.1184932101E-01
          0                 4           1             4    7     1      -0.4042131546E-05       4    7    1        -0.2314365436E-03      0.4885647224E-03

    ------------------------------------------------
       NWT REQUIRED            4 OUTER ITERATIONS 
       AND A TOTAL OF          6 INNER ITERATIONS.
    ------------------------------------------------

 NO OUTPUT CONTROL FOR STRESS PERIOD   24   TIME STEP   11
 
 SOLVING FOR HEAD 
                                                   Max.-Head-Change                         Max.-Flux-Residual
  Residual-Control   Outer-Iter.   Inner-Iter.     Column Row Layer    Maximum-Head-Change  Column Row Layer    Maximum-Flux-Residual          L2-NORM 
          0                 1           2             4    7     1       0.1512949658E-01       4    7    1         0.7974522841E+00      0.1673793244E+01
          0                 2           2             4    7     1      -0.1471692394E-02       4    7    1        -0.7974556226E-01      0.1671075258E+00
          0                 3           1             4    7     1       0.1002167492E-03       4    7    1         0.5582188611E-02      0.1170529545E-01
          0                 4           1             4    7     1      -0.3987720054E-05       4    7    1        -0.2283118447E-03      0.4827229849E-03

    ------------------------------------------------
       NWT REQUIRED            4 OUTER ITERATIONS 
       AND A TOTAL OF          6 INNER ITERATIONS.
    ------------------------------------------------

 NO OUTPUT CONTROL FOR STRESS PERIOD   24   TIME STEP   12
 
 SOLVING FOR HEAD 
                                                   Max.-Head-Change                         Max.-Flux-Residual
  Residual-Control   Outer-Iter.   Inner-Iter.     Column Row Layer    Maximum-Head-Change  Column Row Layer    Maximum-Flux-Residual          L2-NORM 
          0                 1           2             4    7     1       0.1492635073E-01       4    7    1         0.7867109899E+00      0.1653622771E+01
          0                 2           2             4    7     1      -0.1451931719E-02       4    7    1        -0.7867142451E-01      0.1650915789E+00
          0                 3           1             4    7     1       0.9887112170E-04       4    7    1         0.5506999005E-02      0.1156449334E-01

    ------------------------------------------------
       NWT REQUIRED            3 OUTER ITERATIONS 
       AND A TOTAL OF          5 INNER ITERATIONS.
    ------------------------------------------------

 NO OUTPUT CONTROL FOR STRESS PERIOD   24   TIME STEP   13
 
 SOLVING FOR HEAD 
                                                   Max.-Head-Change                         Max.-Flux-Residual
  Residual-Control   Outer-Iter.   Inner-Iter.     Column Row Layer    Maximum-Head-Change  Column Row Layer    Maximum-Flux-Residual          L2-NORM 
          0                 1           2             4    7     1       0.1472652294E-01       4    7    1         0.7761443859E+00      0.1633862037E+01
          0                 2           2             4    7     1      -0.1432493803E-02       4    7    1        -0.7761475595E-01      0.1631185858E+00
          0                 3           1             4    7     1       0.9754747294E-04       4    7    1         0.5433032256E-02      0.1142649119E-01

    ------------------------------------------------
       NWT REQUIRED            3 OUTER ITERATIONS 
       AND A TOTAL OF          5 INNER ITERATIONS.
    ------------------------------------------------

 NO OUTPUT CONTROL FOR STRESS PERIOD   24   TIME STEP   14
 
 SOLVING FOR HEAD 
                                                   Max.-Head-Change                         Max.-Flux-Residual
  Residual-Control   Outer-Iter.   Inner-Iter.     Column Row Layer    Maximum-Head-Change  Column Row Layer    Maximum-Flux-Residual          L2-NORM 
          0                 1           2             4    7     1       0.1453017328E-01       4    7    1         0.7657609249E+00      0.1614511591E+01
          0                 2           2             4    7     1      -0.1413394218E-02       4    7    1        -0.7657640186E-01      0.1611840168E+00
          0                 3           1             4    7     1       0.9624686290E-04       4    7    1         0.5360347513E-02      0.1129114182E-01

    ------------------------------------------------
       NWT REQUIRED            3 OUTER ITERATIONS 
       AND A TOTAL OF          5 INNER ITERATIONS.
    ------------------------------------------------

 NO OUTPUT CONTROL FOR STRESS PERIOD   24   TIME STEP   15
 
 SOLVING FOR HEAD 
                                                   Max.-Head-Change                         Max.-Flux-Residual
  Residual-Control   Outer-Iter.   Inner-Iter.     Column Row Layer    Maximum-Head-Change  Column Row Layer    Maximum-Flux-Residual          L2-NORM 
          0                 1           2             4    7     1       0.1433696690E-01       4    7    1         0.7555431765E+00      0.1595532546E+01
          0                 2           2             4    7     1      -0.1394600390E-02       4    7    1        -0.7555461923E-01      0.1592842819E+00
          0                 3           1             4    7     1       0.9496707420E-04       4    7    1         0.5288822775E-02      0.1115825571E-01

    ------------------------------------------------
       NWT REQUIRED            3 OUTER ITERATIONS 
       AND A TOTAL OF          5 INNER ITERATIONS.
    ------------------------------------------------

 NO OUTPUT CONTROL FOR STRESS PERIOD   24   TIME STEP   16
 
 SOLVING FOR HEAD 
                                                   Max.-Head-Change                         Max.-Flux-Residual
  Residual-Control   Outer-Iter.   Inner-Iter.     Column Row Layer    Maximum-Head-Change  Column Row Layer    Maximum-Flux-Residual          L2-NORM 
          0                 1           2             4    7     1       0.1414713847E-01       4    7    1         0.7455032865E+00      0.1576950237E+01
          0                 2           2             4    7     1      -0.1376135147E-02       4    7    1        -0.7455062262E-01      0.1574406638E+00
          0                 3           1             4    7     1       0.9370966106E-04       4    7    1         0.5218543065E-02      0.1102927553E-01

    ------------------------------------------------
       NWT REQUIRED            3 OUTER ITERATIONS 
       AND A TOTAL OF          5 INNER ITERATIONS.
    ------------------------------------------------

 NO OUTPUT CONTROL FOR STRESS PERIOD   24   TIME STEP   17
 
 SOLVING FOR HEAD 
                                                   Max.-Head-Change                         Max.-Flux-Residual
  Residual-Control   Outer-Iter.   Inner-Iter.     Column Row Layer    Maximum-Head-Change  Column Row Layer    Maximum-Flux-Residual          L2-NORM 
          0                 1           2             4    7     1       0.1396049291E-01       4    7    1         0.7356312907E+00      0.1558723918E+01
          0                 2           2             4    7     1      -0.1357979514E-02       4    7    1        -0.7356341563E-01      0.1555995747E+00
          0                 3           1             4    7     1       0.9247333065E-04       4    7    1         0.5149438608E-02      0.1090047620E-01

    ------------------------------------------------
       NWT REQUIRED            3 OUTER ITERATIONS 
       AND A TOTAL OF          5 INNER ITERATIONS.
    ------------------------------------------------

 NO OUTPUT CONTROL FOR STRESS PERIOD   24   TIME STEP   18
 
 SOLVING FOR HEAD 
                                                   Max.-Head-Change                         Max.-Flux-Residual
  Residual-Control   Outer-Iter.   Inner-Iter.     Column Row Layer    Maximum-Head-Change  Column Row Layer    Maximum-Flux-Residual          L2-NORM 
          0                 1           2             4    7     1       0.1377698058E-01       4    7    1         0.7259244475E+00      0.1540850634E+01
          0                 2           2             4    7     1      -0.1340128661E-02       4    7    1        -0.7259272406E-01      0.1538102469E+00
          0                 3           1             4    7     1       0.9125775472E-04       4    7    1         0.5081490231E-02      0.1077529488E-01

    ------------------------------------------------
       NWT REQUIRED            3 OUTER ITERATIONS 
       AND A TOTAL OF          5 INNER ITERATIONS.
    ------------------------------------------------

 NO OUTPUT CONTROL FOR STRESS PERIOD   24   TIME STEP   19
 
 SOLVING FOR HEAD 
                                                   Max.-Head-Change                         Max.-Flux-Residual
  Residual-Control   Outer-Iter.   Inner-Iter.     Column Row Layer    Maximum-Head-Change  Column Row Layer    Maximum-Flux-Residual          L2-NORM 
          0                 1           2             4    7     1       0.1359654573E-01       4    7    1         0.7163801810E+00      0.1523325705E+01
          0                 2           2             4    7     1      -0.1322577165E-02       4    7    1        -0.7163829033E-01      0.1520558448E+00
          0                 3           1             4    7     1       0.9006256404E-04       4    7    1         0.5014679907E-02      0.1065255430E-01

    ------------------------------------------------
       NWT REQUIRED            3 OUTER ITERATIONS 
       AND A TOTAL OF          5 INNER ITERATIONS.
    ------------------------------------------------

 NO OUTPUT CONTROL FOR STRESS PERIOD   24   TIME STEP   20
 
 SOLVING FOR HEAD 
                                                   Max.-Head-Change                         Max.-Flux-Residual
  Residual-Control   Outer-Iter.   Inner-Iter.     Column Row Layer    Maximum-Head-Change  Column Row Layer    Maximum-Flux-Residual          L2-NORM 
          0                 1           2             4    7     1       0.1341928302E-01       4    7    1         0.7070029795E+00      0.1506157864E+01
          0                 2           2             4    7     1      -0.1305334236E-02       4    7    1        -0.7070056329E-01      0.1503370518E+00
          0                 3           1             4    7     1       0.8888838570E-04       4    7    1         0.4949039065E-02      0.1053231177E-01

    ------------------------------------------------
       NWT REQUIRED            3 OUTER ITERATIONS 
       AND A TOTAL OF          5 INNER ITERATIONS.
    ------------------------------------------------

 NO OUTPUT CONTROL FOR STRESS PERIOD   24   TIME STEP   21
 
 SOLVING FOR HEAD 
                                                   Max.-Head-Change                         Max.-Flux-Residual
  Residual-Control   Outer-Iter.   Inner-Iter.     Column Row Layer    Maximum-Head-Change  Column Row Layer    Maximum-Flux-Residual          L2-NORM 
          0                 1           2             4    7     1       0.1324485201E-01       4    7    1         0.6977756110E+00      0.1489299618E+01
          0                 2           2             4    7     1      -0.1288366755E-02       4    7    1        -0.6977781972E-01      0.1486492587E+00
          0                 3           1             4    7     1       0.8773296359E-04       4    7    1         0.4884447034E-02      0.1041422499E-01

    ------------------------------------------------
       NWT REQUIRED            3 OUTER ITERATIONS 
       AND A TOTAL OF          5 INNER ITERATIONS.
    ------------------------------------------------

 NO OUTPUT CONTROL FOR STRESS PERIOD   24   TIME STEP   22
 
 SOLVING FOR HEAD 
                                                   Max.-Head-Change                         Max.-Flux-Residual
  Residual-Control   Outer-Iter.   Inner-Iter.     Column Row Layer    Maximum-Head-Change  Column Row Layer    Maximum-Flux-Residual          L2-NORM 
          0                 1           2             4    7     1       0.1307362105E-01       4    7    1         0.6887173184E+00      0.1472777762E+01
          0                 2           2             4    7     1      -0.1271710555E-02       4    7    1        -0.6887198390E-01      0.1469951435E+00
          0                 3           1             4    7     1       0.8659873924E-04       4    7    1         0.4821038551E-02      0.1029849595E-01

    ------------------------------------------------
       NWT REQUIRED            3 OUTER ITERATIONS 
       AND A TOTAL OF          5 INNER ITERATIONS.
    ------------------------------------------------

 NO OUTPUT CONTROL FOR STRESS PERIOD   24   TIME STEP   23
 
 SOLVING FOR HEAD 
                                                   Max.-Head-Change                         Max.-Flux-Residual
  Residual-Control   Outer-Iter.   Inner-Iter.     Column Row Layer    Maximum-Head-Change  Column Row Layer    Maximum-Flux-Residual          L2-NORM 
          0                 1           2             4    7     1       0.1290525508E-01       4    7    1         0.6798103062E+00      0.1456569236E+01
          0                 2           2             4    7     1      -0.1255333043E-02       4    7    1        -0.6798127631E-01      0.1453723743E+00
          0                 3           1             4    7     1       0.8548349242E-04       4    7    1         0.4758689072E-02      0.1018498872E-01

    ------------------------------------------------
       NWT REQUIRED            3 OUTER ITERATIONS 
       AND A TOTAL OF          5 INNER ITERATIONS.
    ------------------------------------------------

 NO OUTPUT CONTROL FOR STRESS PERIOD   24   TIME STEP   24
 
 SOLVING FOR HEAD 
                                                   Max.-Head-Change                         Max.-Flux-Residual
  Residual-Control   Outer-Iter.   Inner-Iter.     Column Row Layer    Maximum-Head-Change  Column Row Layer    Maximum-Flux-Residual          L2-NORM 
          0                 1           2             4    7     1       0.1273970321E-01       4    7    1         0.6710519518E+00      0.1440665355E+01
          0                 2           2             4    7     1      -0.1239229268E-02       4    7    1        -0.6710543464E-01      0.1437801398E+00
          0                 3           1             4    7     1       0.8438688622E-04       4    7    1         0.4697380204E-02      0.1007362220E-01

    ------------------------------------------------
       NWT REQUIRED            3 OUTER ITERATIONS 
       AND A TOTAL OF          5 INNER ITERATIONS.
    ------------------------------------------------

 NO OUTPUT CONTROL FOR STRESS PERIOD   24   TIME STEP   25
 
 SOLVING FOR HEAD 
                                                   Max.-Head-Change                         Max.-Flux-Residual
  Residual-Control   Outer-Iter.   Inner-Iter.     Column Row Layer    Maximum-Head-Change  Column Row Layer    Maximum-Flux-Residual          L2-NORM 
          0                 1           2             4    7     1       0.1257705396E-01       4    7    1         0.6624469975E+00      0.1425055914E+01
          0                 2           2             4    7     1      -0.1223407843E-02       4    7    1        -0.6624493317E-01      0.1422173961E+00
          0                 3           1             4    7     1       0.8330950641E-04       4    7    1         0.4637145116E-02      0.9964295449E-02

    ------------------------------------------------
       NWT REQUIRED            3 OUTER ITERATIONS 
       AND A TOTAL OF          5 INNER ITERATIONS.
    ------------------------------------------------

 NO OUTPUT CONTROL FOR STRESS PERIOD   24   TIME STEP   26
 
 SOLVING FOR HEAD 
                                                   Max.-Head-Change                         Max.-Flux-Residual
  Residual-Control   Outer-Iter.   Inner-Iter.     Column Row Layer    Maximum-Head-Change  Column Row Layer    Maximum-Flux-Residual          L2-NORM 
          0                 1           2             4    7     1       0.1241710863E-01       4    7    1         0.6539852720E+00      0.1409734772E+01
          0                 2           2             4    7     1      -0.1207849436E-02       4    7    1        -0.6539875469E-01      0.1406835835E+00
          0                 3           1             4    7     1       0.8225003768E-04       4    7    1         0.4577912663E-02      0.9857025561E-02

    ------------------------------------------------
       NWT REQUIRED            3 OUTER ITERATIONS 
       AND A TOTAL OF          5 INNER ITERATIONS.
    ------------------------------------------------

 NO OUTPUT CONTROL FOR STRESS PERIOD   24   TIME STEP   27
 
 SOLVING FOR HEAD 
                                                   Max.-Head-Change                         Max.-Flux-Residual
  Residual-Control   Outer-Iter.   Inner-Iter.     Column Row Layer    Maximum-Head-Change  Column Row Layer    Maximum-Flux-Residual          L2-NORM 
          0                 1           2             4    7     1       0.1225996061E-01       4    7    1         0.6456712299E+00      0.1394702896E+01
          0                 2           2             4    7     1      -0.1192563134E-02       4    7    1        -0.6456734473E-01      0.1391787218E+00
          0                 3           1             4    7     1       0.8120909787E-04       4    7    1         0.4519713984E-02      0.9751728525E-02

    ------------------------------------------------
       NWT REQUIRED            3 OUTER ITERATIONS 
       AND A TOTAL OF          5 INNER ITERATIONS.
    ------------------------------------------------

 NO OUTPUT CONTROL FOR STRESS PERIOD   24   TIME STEP   28
 
 SOLVING FOR HEAD 
                                                   Max.-Head-Change                         Max.-Flux-Residual
  Residual-Control   Outer-Iter.   Inner-Iter.     Column Row Layer    Maximum-Head-Change  Column Row Layer    Maximum-Flux-Residual          L2-NORM 
          0                 1           2             4    7     1       0.1210554915E-01       4    7    1         0.6375023343E+00      0.1379934439E+01
          0                 2           2             4    7     1      -0.1177543026E-02       4    7    1        -0.6375044957E-01      0.1377003431E+00
          0                 3           1             4    7     1       0.8018628498E-04       4    7    1         0.4462531344E-02      0.9648340010E-02

    ------------------------------------------------
       NWT REQUIRED            3 OUTER ITERATIONS 
       AND A TOTAL OF          5 INNER ITERATIONS.
    ------------------------------------------------

 NO OUTPUT CONTROL FOR STRESS PERIOD   24   TIME STEP   29
 
 SOLVING FOR HEAD 
                                                   Max.-Head-Change                         Max.-Flux-Residual
  Residual-Control   Outer-Iter.   Inner-Iter.     Column Row Layer    Maximum-Head-Change  Column Row Layer    Maximum-Flux-Residual          L2-NORM 
          0                 1           2             4    7     1       0.1195368709E-01       4    7    1         0.6294680499E+00      0.1365440789E+01
          0                 2           2             4    7     1      -0.1162770909E-02       4    7    1        -0.6294701569E-01      0.1362495857E+00
          0                 3           1             4    7     1       0.7918035931E-04       4    7    1         0.4406291005E-02      0.9546826261E-02

    ------------------------------------------------
       NWT REQUIRED            3 OUTER ITERATIONS 
       AND A TOTAL OF          5 INNER ITERATIONS.
    ------------------------------------------------

 NO OUTPUT CONTROL FOR STRESS PERIOD   24   TIME STEP   30



 STREAM LISTING     PERIOD     24   STEP       30

 LAYER ROW COL. STREAM  RCH.  FLOW INTO     FLOW TO   FLOW OUT OF   OVRLND.     DIRECT     STREAM       STREAM     STREAM     STREAM   STREAMBED  STREAMBED
                SEG.NO.  NO.  STRM. RCH.    AQUIFER    STRM. RCH.    RUNOFF     PRECIP       ET          HEAD       DEPTH      WIDTH   CONDCTNC.   GRADIENT

   1    1    1     1     1    2.1000E+01  2.2592E-01   2.0774E+01  0.000E+00  0.000E+00  0.000E+00  1.09416E+03  1.115E+00  1.220E+01  5.490E-02  1.372E+00
   1    2    2     1     2    2.0774E+01  3.4916E-01   2.0425E+01  0.000E+00  0.000E+00  0.000E+00  1.08917E+03  1.110E+00  1.214E+01  8.495E-02  1.370E+00
   1    3    3     1     3    2.0425E+01  2.9709E-01   2.0128E+01  0.000E+00  0.000E+00  0.000E+00  1.08352E+03  1.105E+00  1.206E+01  7.238E-02  1.368E+00
   1    3    4     1     4    2.0128E+01  2.7299E-01   1.9855E+01  0.000E+00  0.000E+00  0.000E+00  1.07851E+03  1.100E+00  1.200E+01  6.659E-02  1.367E+00
   1    4    5     2     1    1.7855E+01  3.1056E-01   1.7544E+01  0.000E+00  0.000E+00  0.000E+00  1.07292E+03  9.816E-01  1.200E+01  7.800E-02  1.327E+00
   1    5    6     2     2    1.7544E+01  2.3834E-01   1.7306E+01  0.000E+00  0.000E+00  0.000E+00  1.06748E+03  9.724E-01  1.200E+01  6.000E-02  1.324E+00
   1    6    6     2     3    1.7306E+01  2.3786E-01   1.7068E+01  0.000E+00  0.000E+00  0.000E+00  1.06276E+03  9.644E-01  1.200E+01  6.000E-02  1.321E+00
   1    7    6     2     4    1.7068E+01  2.3738E-01   1.6831E+01  0.000E+00  0.000E+00  0.000E+00  1.05803E+03  9.564E-01  1.200E+01  6.000E-02  1.319E+00
   1    8    6     2     5    1.6831E+01  2.3690E-01   1.6594E+01  0.000E+00  0.000E+00  0.000E+00  1.05331E+03  9.483E-01  1.200E+01  6.000E-02  1.316E+00
   1    3    5     3     1    2.0000E+00  2.8252E-01   1.7175E+00  0.000E+00  0.000E+00  0.000E+00  1.07555E+03  1.909E+00  9.636E+00  7.227E-02  1.955E+00
   1    3    6     3     2    1.7175E+00  2.4905E-01   1.4684E+00  0.000E+00  0.000E+00  0.000E+00  1.07264E+03  1.727E+00  8.909E+00  6.682E-02  1.864E+00
   1    3    7     3     3    1.4684E+00  1.9718E-01   1.2712E+00  0.000E+00  0.000E+00  0.000E+00  1.06987E+03  1.555E+00  8.218E+00  5.547E-02  1.777E+00
   1    4    8     3     4    1.2712E+00  2.2567E-01   1.0456E+00  0.000E+00  0.000E+00  0.000E+00  1.06682E+03  1.364E+00  7.455E+00  6.709E-02  1.682E+00
   1    5    8     3     5    1.0456E+00  1.5790E-01   8.8768E-01  0.000E+00  0.000E+00  0.000E+00  1.06362E+03  1.164E+00  6.655E+00  4.991E-02  1.582E+00
   1    6    8     3     6    8.8768E-01  5.5980E-02   8.3170E-01  0.000E+00  0.000E+00  0.000E+00  1.06158E+03  1.036E+00  6.145E+00  1.844E-02  1.518E+00
   1    5   10     4     1    1.0000E+01  9.0919E-02   9.9091E+00  0.000E+00  0.000E+00  0.000E+00  1.07836E+03  6.368E-01  1.000E+01  2.500E-02  1.212E+00
   1    5    9     4     2    9.9091E+00  1.8158E-01   9.7275E+00  0.000E+00  0.000E+00  0.000E+00  1.07154E+03  6.315E-01  1.000E+01  5.000E-02  1.211E+00
   1    6    8     4     3    9.7275E+00  1.2689E-01   9.6006E+00  0.000E+00  0.000E+00  0.000E+00  1.06381E+03  6.256E-01  1.000E+01  3.500E-02  1.209E+00
   1    6    8     5     1    1.0432E+01  2.2686E-01   1.0205E+01  0.000E+00  0.000E+00  0.000E+00  1.05868E+03  6.790E-01  1.542E+01  6.166E-02  1.226E+00
   1    7    7     5     2    1.0205E+01  2.7894E-01   9.9265E+00  0.000E+00  0.000E+00  0.000E+00  1.05417E+03  6.732E-01  1.519E+01  7.594E-02  1.224E+00
   1    8    7     5     3    9.9265E+00  1.9221E-01   9.7343E+00  0.000E+00  0.000E+00  0.000E+00  1.04992E+03  6.676E-01  1.497E+01  5.241E-02  1.223E+00
   1    8    6     5     4    9.7343E+00  1.3577E-01   9.5985E+00  0.000E+00  0.000E+00  0.000E+00  1.04691E+03  6.637E-01  1.482E+01  3.706E-02  1.221E+00
   1    9    6     6     1    2.6192E+01  2.5512E-01   2.5937E+01  0.000E+00  0.000E+00  0.000E+00  1.04398E+03  1.252E+00  1.200E+01  6.000E-02  1.417E+00
   1   10    7     6     2    2.5937E+01  2.5468E-01   2.5683E+01  0.000E+00  0.000E+00  0.000E+00  1.03943E+03  1.245E+00  1.200E+01  6.000E-02  1.415E+00
   1   11    7     6     3    2.5683E+01  2.5424E-01   2.5428E+01  0.000E+00  0.000E+00  0.000E+00  1.03487E+03  1.237E+00  1.200E+01  6.000E-02  1.412E+00
   1   12    7     6     4    2.5428E+01  2.5379E-01   2.5174E+01  0.000E+00  0.000E+00  0.000E+00  1.03032E+03  1.230E+00  1.200E+01  6.000E-02  1.410E+00
   1   13    7     6     5    2.5174E+01  2.6128E-03   2.5172E+01  0.000E+00  0.000E+00  0.000E+00  1.02714E+03  1.226E+00  1.200E+01  2.400E-02  3.629E-02
   1   14    9     7     1    1.5000E+02  1.3361E+00   1.4866E+02  0.000E+00  0.000E+00  0.000E+00  1.03987E+03  2.288E+00  5.529E+01  5.593E-01  7.963E-01
   1   13    8     7     2    1.4866E+02  1.8453E+00   1.4682E+02  0.000E+00  0.000E+00  0.000E+00  1.03478E+03  2.279E+00  5.526E+01  6.148E-01  1.001E+00
   1   13    7     7     3    1.4682E+02  1.4873E+00   1.4533E+02  0.000E+00  0.000E+00  0.000E+00  1.02969E+03  2.270E+00  5.522E+01  5.584E-01  8.878E-01
   1   13    6     8     1    1.7050E+02  9.4997E-01   1.6955E+02  0.000E+00  0.000E+00  0.000E+00  1.02483E+03  2.952E+00  4.281E+01  4.362E-01  7.259E-01
   1   13    5     8     2    1.6955E+02  2.0235E-01   1.6935E+02  0.000E+00  0.000E+00  0.000E+00  1.01857E+03  2.949E+00  4.276E+01  4.357E-01  1.548E-01
   1   13    4     8     3    1.6935E+02 -2.3857E+00   1.7174E+02  0.000E+00  0.000E+00  0.000E+00  1.01233E+03  2.956E+00  4.286E+01  4.367E+00 -1.821E-01
   1   13    3     8     4    1.7174E+02 -3.6258E+00   1.7536E+02  0.000E+00  0.000E+00  0.000E+00  1.00610E+03  2.975E+00  4.314E+01  4.396E+00 -2.749E-01
   1   13    2     8     5    1.7536E+02 -2.5608E+00   1.7792E+02  0.000E+00  0.000E+00  0.000E+00  9.99870E+02  2.995E+00  4.343E+01  4.425E+00 -1.929E-01
   1   13    1     8     6    1.7792E+02 -1.9510E+00   1.7987E+02  0.000E+00  0.000E+00  0.000E+00  9.94884E+02  3.009E+00  4.363E+01  2.668E+00 -2.438E-01





UNSATURATED ZONE PACKAGE VOLUMETRIC BUDGET FOR  TIME STEP    30 STRESS PERIOD   24
  ------------------------------------------------------------------------------



     CUMULATIVE VOLUMES      L**3       RATES FOR THIS TIME STEP      L**3/T
     ------------------                 ------------------------

           IN:                                      IN:
           ---                                      ---
        INFILTRATION =   369890326.3597          INFILTRATION =           0.8475

          OUT:                                     OUT:
          ----                                     ----
              UZF ET =   197312739.4661                UZF ET =           0.0272
        UZF RECHARGE =    11343136.5263          UZF RECHARGE =           0.0357

            IN - OUT =   161234450.3673              IN - OUT =           0.7846

          STORAGE:                                 STORAGE:
          --------                                 --------
      STORAGE CHANGE =   161357912.7502        STORAGE CHANGE =           0.7846

 PERCENT DISCREPANCY IS DIFFERENCE BETWEEN IN-OUT MINUS CHANGE IN STORAGE
 DIVIDED BY THE AVERAGE OF IN AND OUT TIMES 100

 PERCENT DISCREPANCY =          -0.01     PERCENT DISCREPANCY =          -0.00






1
  VOLUMETRIC BUDGET FOR ENTIRE MODEL AT END OF TIME STEP   30, STRESS PERIOD  24
  ------------------------------------------------------------------------------

     CUMULATIVE VOLUMES      L**3       RATES FOR THIS TIME STEP      L**3/T
     ------------------                 ------------------------

           IN:                                      IN:
           ---                                      ---
               AWU WELLS =   318590336.0000                 AWU WELLS =           0.0000
      DIVERSION SEGMENTS =           0.0000        DIVERSION SEGMENTS =           0.0000
           GW IRRIGATION =           0.0000             GW IRRIGATION =           0.0000
           SW IRRIGATION =           0.0000             SW IRRIGATION =           0.0000
        SYSTEM LOSSES GW =           0.0000          SYSTEM LOSSES GW =           0.0000
        SYSTEM LOSSES SW =           0.0000          SYSTEM LOSSES SW =           0.0000

                TOTAL IN =   318590336.0000                  TOTAL IN =           0.0000

          OUT:                                     OUT:
          ----                                     ----
               AWU WELLS =           0.0000                 AWU WELLS =           0.0000
      DIVERSION SEGMENTS =           0.0000        DIVERSION SEGMENTS =           0.0000
           GW IRRIGATION =   318590336.0000             GW IRRIGATION =           0.0000
           SW IRRIGATION =           0.0000             SW IRRIGATION =           0.0000
        SYSTEM LOSSES GW =           0.0000          SYSTEM LOSSES GW =           0.0000
        SYSTEM LOSSES SW =           0.0000          SYSTEM LOSSES SW =           0.0000

               TOTAL OUT =   318590336.0000                 TOTAL OUT =           0.0000

                IN - OUT =           0.0000                  IN - OUT =           0.0000

     PERCENT DISCREPANCY =           0.00         PERCENT DISCREPANCY =           0.00



1
  VOLUMETRIC BUDGET FOR ENTIRE MODEL AT END OF TIME STEP   30, STRESS PERIOD  24
  ------------------------------------------------------------------------------

     CUMULATIVE VOLUMES      L**3       RATES FOR THIS TIME STEP      L**3/T
     ------------------                 ------------------------

           IN:                                      IN:
           ---                                      ---
             STORAGE     =   544507200.0000               STORAGE     =           3.3237
       CONSTANT HEAD     =           0.0000         CONSTANT HEAD     =           0.0000
     HEAD DEP BOUNDS     =    17290960.0000       HEAD DEP BOUNDS     =           0.2858
      STREAM LEAKAGE     =   763170240.0000        STREAM LEAKAGE     =          11.6491
        UZF RECHARGE     =    11343137.0000          UZF RECHARGE     =       3.5702E-02
               GW ET     =           0.0000                 GW ET     =           0.0000
     SURFACE LEAKAGE     =           0.0000       SURFACE LEAKAGE     =           0.0000
           AWU WELLS     =           0.0000             AWU WELLS     =           0.0000

                TOTAL IN =  1336311552.0000                  TOTAL IN =          15.2943

          OUT:                                     OUT:
          ----                                     ----
             STORAGE     =   322988736.0000               STORAGE     =           4.4721
       CONSTANT HEAD     =           0.0000         CONSTANT HEAD     =           0.0000
     HEAD DEP BOUNDS     =    17529686.0000       HEAD DEP BOUNDS     =           0.2894
      STREAM LEAKAGE     =   566307776.0000        STREAM LEAKAGE     =          10.5233
        UZF RECHARGE     =           0.0000          UZF RECHARGE     =           0.0000
               GW ET     =   110899448.0000                 GW ET     =       9.7427E-03
     SURFACE LEAKAGE     =           0.0000       SURFACE LEAKAGE     =           0.0000
           AWU WELLS     =   318590336.0000             AWU WELLS     =           0.0000

               TOTAL OUT =  1336316032.0000                 TOTAL OUT =          15.2945

                IN - OUT =       -4480.0000                  IN - OUT =      -2.4128E-04

     PERCENT DISCREPANCY =          -0.00         PERCENT DISCREPANCY =          -0.00






         TIME SUMMARY AT END OF TIME STEP   30 IN STRESS PERIOD   24
                    SECONDS     MINUTES      HOURS       DAYS        YEARS
                    -----------------------------------------------------------
   TIME STEP LENGTH  87600.      1460.0      24.333      1.0139     2.77588E-03
 STRESS PERIOD TIME 2.62800E+06  43800.      730.00      30.417     8.32763E-02
         TOTAL TIME 6.05304E+07 1.00884E+06  16814.      700.58      1.9181    
1
1
                            STRESS PERIOD NO.   25, LENGTH =   2628000.    
                            -----------------------------------------------

                              NUMBER OF TIME STEPS =    30

                               MULTIPLIER FOR DELT =     1.000

                            INITIAL TIME STEP SIZE =   87600.00    

 REUSING NON-PARAMETER GHB CELLS FROM LAST STRESS PERIOD

      2 GHB CELLS

 REUSING STREAM SEGMENT DATA FROM LAST STRESS PERIOD



            AREAL INFILTRATION RATE
 READING ON UNIT   19 WITH FORMAT: (10F4.0)            

            1           2           3           4           5           6           7           8           9          10
 ........................................................................................................................
   1   1.0000E-10  2.0000E-10   0.000       0.000       0.000       0.000       0.000       0.000       0.000       0.000    
   2   2.0000E-10  1.0000E-10  2.0000E-10   0.000       0.000      8.0000E-10  8.0000E-10  5.0000E-10   0.000       0.000    
   3    0.000      5.0000E-10  1.0000E-10  1.0000E-10  8.0000E-10  8.0000E-10  5.0000E-10  5.0000E-10   0.000       0.000    
   4   8.0000E-10  5.0000E-10  1.0000E-10  1.0000E-10  1.0000E-10  1.0000E-10  1.0000E-10  1.0000E-10  2.0000E-10   0.000    
   5   8.0000E-10  5.0000E-10  1.0000E-10  1.0000E-10  1.0000E-10  1.0000E-10  1.0000E-10  1.0000E-10  1.0000E-10  1.0000E-10
   6   8.0000E-10  5.0000E-10  5.0000E-10  2.0000E-10  2.0000E-10  1.0000E-10  1.0000E-10  1.0000E-10  1.0000E-10  5.0000E-10
   7   8.0000E-10  5.0000E-10  5.0000E-10  2.0000E-10  2.0000E-10  1.0000E-10  1.0000E-10  2.0000E-10  2.0000E-10   0.000    
   8    0.000      5.0000E-10  5.0000E-10  2.0000E-10  2.0000E-10  1.0000E-10  1.0000E-10  2.0000E-10  5.0000E-10   0.000    
   9    0.000      5.0000E-10  5.0000E-10  2.0000E-10  2.0000E-10  1.0000E-10  1.0000E-10  2.0000E-10  5.0000E-10   0.000    
  10    0.000      5.0000E-10  5.0000E-10  2.0000E-10  2.0000E-10  1.0000E-10  1.0000E-10  2.0000E-10  5.0000E-10  8.0000E-10
  11    0.000      1.0000E-10  1.0000E-10  1.0000E-10  1.0000E-10  1.0000E-10  1.0000E-10  2.0000E-10  5.0000E-10   0.000    
  12   1.0000E-10  1.0000E-10  1.0000E-10  1.0000E-10  1.0000E-10  1.0000E-10  1.0000E-10  1.0000E-10  2.0000E-10   0.000    
  13   1.0000E-10  1.0000E-10  2.0000E-10  2.0000E-10  2.0000E-10  2.0000E-10  2.0000E-10  1.0000E-10  1.0000E-10   0.000    
  14    0.000      2.0000E-10  5.0000E-10  5.0000E-10  5.0000E-10  5.0000E-10  5.0000E-10  2.0000E-10  1.0000E-10   0.000    
  15    0.000       0.000      8.0000E-10  8.0000E-10  8.0000E-10  8.0000E-10   0.000       0.000       0.000       0.000    

                  ET RATE =  1.000000E-10

 USING ET EXTINCTION DEPTH FROM PREVIOUS STRESS PERIOD. CURRENT PERIOD IS:      25

 USING EXTINCTION WATER CONTENT FROM PREVIOUS STRESS PERIOD. CURRENT PERIOD IS:      25

 PROCESSING AWU STRESS PERIOD DATA

 READING AWU STRESS PERIOD DATA

 READING IRRIGATION WELL

 END PROCESSING AWU STRESS PERIOD DATA OPTIONS
 
 SOLVING FOR HEAD 
                                                   Max.-Head-Change                         Max.-Flux-Residual
  Residual-Control   Outer-Iter.   Inner-Iter.     Column Row Layer    Maximum-Head-Change  Column Row Layer    Maximum-Flux-Residual          L2-NORM 
          0                 1           2             4    7     1       0.1180446040E-01       4    7    1         0.6215734320E+00      0.1351327409E+01
          0                 2           2             4    7     1      -0.1148255142E-02       4    7    1        -0.6215754857E-01      0.1348401596E+00
          0                 3           1             4    7     1       0.7819189008E-04       4    7    1         0.4351028331E-02      0.9448310493E-02

    ------------------------------------------------
       NWT REQUIRED            3 OUTER ITERATIONS 
       AND A TOTAL OF          5 INNER ITERATIONS.
    ------------------------------------------------

 NO OUTPUT CONTROL FOR STRESS PERIOD   25   TIME STEP    1
 
 SOLVING FOR HEAD 
                                                   Max.-Head-Change                         Max.-Flux-Residual
  Residual-Control   Outer-Iter.   Inner-Iter.     Column Row Layer    Maximum-Head-Change  Column Row Layer    Maximum-Flux-Residual          L2-NORM 
          0                 1           2             4    7     1       0.1165781014E-01       4    7    1         0.6138155578E+00      0.1338450314E+01
          0                 2           2             4    7     1      -0.1133989994E-02       4    7    1        -0.6138175602E-01      0.1335610936E+00
          0                 3           1             4    7     1       0.7722048712E-04       4    7    1         0.4296722867E-02      0.9358874195E-02

    ------------------------------------------------
       NWT REQUIRED            3 OUTER ITERATIONS 
       AND A TOTAL OF          5 INNER ITERATIONS.
    ------------------------------------------------

 NO OUTPUT CONTROL FOR STRESS PERIOD   25   TIME STEP    2
 
 SOLVING FOR HEAD 
                                                   Max.-Head-Change                         Max.-Flux-Residual
  Residual-Control   Outer-Iter.   Inner-Iter.     Column Row Layer    Maximum-Head-Change  Column Row Layer    Maximum-Flux-Residual          L2-NORM 
          0                 1           2             4    7     1       0.1151368344E-01       4    7    1         0.6061913693E+00      0.1324674791E+01
          0                 2           2             4    7     1      -0.1119970323E-02       4    7    1        -0.6061933215E-01      0.1321828654E+00
          0                 3           1             4    7     1       0.7626580040E-04       4    7    1         0.4243353244E-02      0.9262478087E-02

    ------------------------------------------------
       NWT REQUIRED            3 OUTER ITERATIONS 
       AND A TOTAL OF          5 INNER ITERATIONS.
    ------------------------------------------------

 NO OUTPUT CONTROL FOR STRESS PERIOD   25   TIME STEP    3
 
 SOLVING FOR HEAD 
                                                   Max.-Head-Change                         Max.-Flux-Residual
  Residual-Control   Outer-Iter.   Inner-Iter.     Column Row Layer    Maximum-Head-Change  Column Row Layer    Maximum-Flux-Residual          L2-NORM 
          0                 1           2             4    7     1       0.1137189996E-01       4    7    1         0.5986907392E+00      0.1311157372E+01
          0                 2           2             4    7     1      -0.1106178583E-02       4    7    1        -0.5986926424E-01      0.1308302148E+00
          0                 3           1             4    7     1       0.7532663458E-04       4    7    1         0.4190848491E-02      0.9167839354E-02

    ------------------------------------------------
       NWT REQUIRED            3 OUTER ITERATIONS 
       AND A TOTAL OF          5 INNER ITERATIONS.
    ------------------------------------------------

 NO OUTPUT CONTROL FOR STRESS PERIOD   25   TIME STEP    4
 
 SOLVING FOR HEAD 
                                                   Max.-Head-Change                         Max.-Flux-Residual
  Residual-Control   Outer-Iter.   Inner-Iter.     Column Row Layer    Maximum-Head-Change  Column Row Layer    Maximum-Flux-Residual          L2-NORM 
          0                 1           2             4    7     1       0.1123267444E-01       4    7    1         0.5913264622E+00      0.1297859855E+01
          0                 2           2             4    7     1      -0.1092667106E-02       4    7    1        -0.5913283179E-01      0.1295485746E+00
          0                 3           1             4    7     1       0.7440655387E-04       4    7    1         0.4139298268E-02      0.9078210549E-02

    ------------------------------------------------
       NWT REQUIRED            3 OUTER ITERATIONS 
       AND A TOTAL OF          5 INNER ITERATIONS.
    ------------------------------------------------

 NO OUTPUT CONTROL FOR STRESS PERIOD   25   TIME STEP    5
 
 SOLVING FOR HEAD 
                                                   Max.-Head-Change                         Max.-Flux-Residual
  Residual-Control   Outer-Iter.   Inner-Iter.     Column Row Layer    Maximum-Head-Change  Column Row Layer    Maximum-Flux-Residual          L2-NORM 
          0                 1           2             4    7     1       0.1109557214E-01       4    7    1         0.5840784712E+00      0.1284766474E+01
          0                 2           2             4    7     1      -0.1079299292E-02       4    7    1        -0.5840802819E-01      0.1281881426E+00
          0                 3           1             4    7     1       0.7349625604E-04       4    7    1         0.4088562031E-02      0.8983049717E-02

    ------------------------------------------------
       NWT REQUIRED            3 OUTER ITERATIONS 
       AND A TOTAL OF          5 INNER ITERATIONS.
    ------------------------------------------------

 NO OUTPUT CONTROL FOR STRESS PERIOD   25   TIME STEP    6
 
 SOLVING FOR HEAD 
                                                   Max.-Head-Change                         Max.-Flux-Residual
  Residual-Control   Outer-Iter.   Inner-Iter.     Column Row Layer    Maximum-Head-Change  Column Row Layer    Maximum-Flux-Residual          L2-NORM 
          0                 1           2             4    7     1       0.1096079199E-01       4    7    1         0.5769513777E+00      0.1271874683E+01
          0                 2           2             4    7     1      -0.1066188792E-02       4    7    1        -0.5769531439E-01      0.1268974044E+00
          0                 3           1             4    7     1       0.7260348008E-04       4    7    1         0.4038672077E-02      0.8892715269E-02

    ------------------------------------------------
       NWT REQUIRED            3 OUTER ITERATIONS 
       AND A TOTAL OF          5 INNER ITERATIONS.
    ------------------------------------------------

 NO OUTPUT CONTROL FOR STRESS PERIOD   25   TIME STEP    7
 
 SOLVING FOR HEAD 
                                                   Max.-Head-Change                         Max.-Flux-Residual
  Residual-Control   Outer-Iter.   Inner-Iter.     Column Row Layer    Maximum-Head-Change  Column Row Layer    Maximum-Flux-Residual          L2-NORM 
          0                 1           2             4    7     1       0.1082839399E-01       4    7    1         0.5699504887E+00      0.1259215485E+01
          0                 2           2             4    7     1      -0.1053310013E-02       4    7    1        -0.5699522118E-01      0.1256299809E+00
          0                 3           1             4    7     1       0.7172648349E-04       4    7    1         0.3989665568E-02      0.8804072972E-02

    ------------------------------------------------
       NWT REQUIRED            3 OUTER ITERATIONS 
       AND A TOTAL OF          5 INNER ITERATIONS.
    ------------------------------------------------

 NO OUTPUT CONTROL FOR STRESS PERIOD   25   TIME STEP    8
 
 SOLVING FOR HEAD 
                                                   Max.-Head-Change                         Max.-Flux-Residual
  Residual-Control   Outer-Iter.   Inner-Iter.     Column Row Layer    Maximum-Head-Change  Column Row Layer    Maximum-Flux-Residual          L2-NORM 
          0                 1           2             4    7     1       0.1069805675E-01       4    7    1         0.5630584353E+00      0.1246763576E+01
          0                 2           2             4    7     1      -0.1040631691E-02       4    7    1        -0.5630601162E-01      0.1243832716E+00
          0                 3           1             4    7     1       0.7086313762E-04       4    7    1         0.3941420933E-02      0.8716856820E-02

    ------------------------------------------------
       NWT REQUIRED            3 OUTER ITERATIONS 
       AND A TOTAL OF          5 INNER ITERATIONS.
    ------------------------------------------------

 NO OUTPUT CONTROL FOR STRESS PERIOD   25   TIME STEP    9
 
 SOLVING FOR HEAD 
                                                   Max.-Head-Change                         Max.-Flux-Residual
  Residual-Control   Outer-Iter.   Inner-Iter.     Column Row Layer    Maximum-Head-Change  Column Row Layer    Maximum-Flux-Residual          L2-NORM 
          0                 1           2             4    7     1       0.1056988246E-01       4    7    1         0.5562806948E+00      0.1234532882E+01
          0                 2           2             4    7     1      -0.1028163767E-02       4    7    1        -0.5562823347E-01      0.1231586776E+00
          0                 3           1             4    7     1       0.7001411888E-04       4    7    1         0.3893976476E-02      0.8631199891E-02

    ------------------------------------------------
       NWT REQUIRED            3 OUTER ITERATIONS 
       AND A TOTAL OF          5 INNER ITERATIONS.
    ------------------------------------------------

 NO OUTPUT CONTROL FOR STRESS PERIOD   25   TIME STEP   10
 
 SOLVING FOR HEAD 
                                                   Max.-Head-Change                         Max.-Flux-Residual
  Residual-Control   Outer-Iter.   Inner-Iter.     Column Row Layer    Maximum-Head-Change  Column Row Layer    Maximum-Flux-Residual          L2-NORM 
          0                 1           2             4    7     1       0.1044396325E-01       4    7    1         0.5496225714E+00      0.1222502875E+01
          0                 2           2             4    7     1      -0.1015915202E-02       4    7    1        -0.5496241711E-01      0.1219541382E+00
          0                 3           1             4    7     1       0.6918003730E-04       4    7    1         0.3847369345E-02      0.8546935447E-02

    ------------------------------------------------
       NWT REQUIRED            3 OUTER ITERATIONS 
       AND A TOTAL OF          5 INNER ITERATIONS.
    ------------------------------------------------

 NO OUTPUT CONTROL FOR STRESS PERIOD   25   TIME STEP   11
 
 SOLVING FOR HEAD 
                                                   Max.-Head-Change                         Max.-Flux-Residual
  Residual-Control   Outer-Iter.   Inner-Iter.     Column Row Layer    Maximum-Head-Change  Column Row Layer    Maximum-Flux-Residual          L2-NORM 
          0                 1           2             4    7     1       0.1032011859E-01       4    7    1         0.5430740744E+00      0.1210680613E+01
          0                 2           2             4    7     1      -0.1003868435E-02       4    7    1        -0.5430756350E-01      0.1207704155E+00
          0                 3           1             4    7     1       0.6835969768E-04       4    7    1         0.3801529600E-02      0.8464123024E-02

    ------------------------------------------------
       NWT REQUIRED            3 OUTER ITERATIONS 
       AND A TOTAL OF          5 INNER ITERATIONS.
    ------------------------------------------------

 NO OUTPUT CONTROL FOR STRESS PERIOD   25   TIME STEP   12
 
 SOLVING FOR HEAD 
                                                   Max.-Head-Change                         Max.-Flux-Residual
  Residual-Control   Outer-Iter.   Inner-Iter.     Column Row Layer    Maximum-Head-Change  Column Row Layer    Maximum-Flux-Residual          L2-NORM 
          0                 1           2             4    7     1       0.1019830965E-01       4    7    1         0.5366332208E+00      0.1199064537E+01
          0                 2           2             4    7     1      -0.9920196915E-03       4    7    1        -0.5366347435E-01      0.1196073081E+00
          0                 3           1             4    7     1       0.6755284276E-04       4    7    1         0.3756443390E-02      0.8382763841E-02

    ------------------------------------------------
       NWT REQUIRED            3 OUTER ITERATIONS 
       AND A TOTAL OF          5 INNER ITERATIONS.
    ------------------------------------------------

 NO OUTPUT CONTROL FOR STRESS PERIOD   25   TIME STEP   13
 
 SOLVING FOR HEAD 
                                                   Max.-Head-Change                         Max.-Flux-Residual
  Residual-Control   Outer-Iter.   Inner-Iter.     Column Row Layer    Maximum-Head-Change  Column Row Layer    Maximum-Flux-Residual          L2-NORM 
          0                 1           2             4    7     1       0.1007849899E-01       4    7    1         0.5302979976E+00      0.1187637316E+01
          0                 2           2             4    7     1      -0.9803653265E-03       4    7    1        -0.5302994833E-01      0.1184630916E+00
          0                 3           1             4    7     1       0.6675922427E-04       4    7    1         0.3712096582E-02      0.8302718592E-02

    ------------------------------------------------
       NWT REQUIRED            3 OUTER ITERATIONS 
       AND A TOTAL OF          5 INNER ITERATIONS.
    ------------------------------------------------

 NO OUTPUT CONTROL FOR STRESS PERIOD   25   TIME STEP   14
 
 SOLVING FOR HEAD 
                                                   Max.-Head-Change                         Max.-Flux-Residual
  Residual-Control   Outer-Iter.   Inner-Iter.     Column Row Layer    Maximum-Head-Change  Column Row Layer    Maximum-Flux-Residual          L2-NORM 
          0                 1           2             4    7     1       0.9960639170E-02       4    7    1         0.5240664606E+00      0.1176386995E+01
          0                 2           2             4    7     1      -0.9689007258E-03       4    7    1        -0.5240679102E-01      0.1173365657E+00
          0                 3           1             4    7     1       0.6597852813E-04       4    7    1         0.3668475586E-02      0.8223924216E-02

    ------------------------------------------------
       NWT REQUIRED            3 OUTER ITERATIONS 
       AND A TOTAL OF          5 INNER ITERATIONS.
    ------------------------------------------------

 NO OUTPUT CONTROL FOR STRESS PERIOD   25   TIME STEP   15
 
 SOLVING FOR HEAD 
                                                   Max.-Head-Change                         Max.-Flux-Residual
  Residual-Control   Outer-Iter.   Inner-Iter.     Column Row Layer    Maximum-Head-Change  Column Row Layer    Maximum-Flux-Residual          L2-NORM 
          0                 1           2             4    7     1       0.9844704563E-02       4    7    1         0.5179361482E+00      0.1165339433E+01
          0                 2           2             4    7     1      -0.9576233978E-03       4    7    1        -0.5179375628E-01      0.1162303185E+00
          0                 3           1             4    7     1       0.6521058443E-04       4    7    1         0.3625563170E-02      0.8146537095E-02

    ------------------------------------------------
       NWT REQUIRED            3 OUTER ITERATIONS 
       AND A TOTAL OF          5 INNER ITERATIONS.
    ------------------------------------------------

 NO OUTPUT CONTROL FOR STRESS PERIOD   25   TIME STEP   16
 
 SOLVING FOR HEAD 
                                                   Max.-Head-Change                         Max.-Flux-Residual
  Residual-Control   Outer-Iter.   Inner-Iter.     Column Row Layer    Maximum-Head-Change  Column Row Layer    Maximum-Flux-Residual          L2-NORM 
          0                 1           2             4    7     1       0.9730650403E-02       4    7    1         0.5119057317E+00      0.1154459010E+01
          0                 2           2             4    7     1      -0.9465289872E-03       4    7    1        -0.5119071119E-01      0.1151408371E+00
          0                 3           1             4    7     1       0.6445509660E-04       4    7    1         0.3583350020E-02      0.8070324471E-02

    ------------------------------------------------
       NWT REQUIRED            3 OUTER ITERATIONS 
       AND A TOTAL OF          5 INNER ITERATIONS.
    ------------------------------------------------

 NO OUTPUT CONTROL FOR STRESS PERIOD   25   TIME STEP   17
 
 SOLVING FOR HEAD 
                                                   Max.-Head-Change                         Max.-Flux-Residual
  Residual-Control   Outer-Iter.   Inner-Iter.     Column Row Layer    Maximum-Head-Change  Column Row Layer    Maximum-Flux-Residual          L2-NORM 
          0                 1           2             4    7     1       0.9618711663E-02       4    7    1         0.5059876607E+00      0.1143762848E+01
          0                 2           2             4    7     1      -0.9356403509E-03       4    7    1        -0.5059890077E-01      0.1140697237E+00
          0                 3           1             4    7     1       0.6371362102E-04       4    7    1         0.3541923303E-02      0.7995405943E-02

    ------------------------------------------------
       NWT REQUIRED            3 OUTER ITERATIONS 
       AND A TOTAL OF          5 INNER ITERATIONS.
    ------------------------------------------------

 NO OUTPUT CONTROL FOR STRESS PERIOD   25   TIME STEP   18
 
 SOLVING FOR HEAD 
                                                   Max.-Head-Change                         Max.-Flux-Residual
  Residual-Control   Outer-Iter.   Inner-Iter.     Column Row Layer    Maximum-Head-Change  Column Row Layer    Maximum-Flux-Residual          L2-NORM 
          0                 1           2             4    7     1       0.9508301023E-02       4    7    1         0.5001498083E+00      0.1133236493E+01
          0                 2           2             4    7     1      -0.9249003584E-03       4    7    1        -0.5001511229E-01      0.1130156299E+00
          0                 3           1             4    7     1       0.6298226818E-04       4    7    1         0.3501058133E-02      0.7921663818E-02

    ------------------------------------------------
       NWT REQUIRED            3 OUTER ITERATIONS 
       AND A TOTAL OF          5 INNER ITERATIONS.
    ------------------------------------------------

 NO OUTPUT CONTROL FOR STRESS PERIOD   25   TIME STEP   19
 
 SOLVING FOR HEAD 
                                                   Max.-Head-Change                         Max.-Flux-Residual
  Residual-Control   Outer-Iter.   Inner-Iter.     Column Row Layer    Maximum-Head-Change  Column Row Layer    Maximum-Flux-Residual          L2-NORM 
          0                 1           2             4    7     1       0.9399930531E-02       4    7    1         0.4944207928E+00      0.1122878974E+01
          0                 2           2             4    7     1      -0.9143588175E-03       4    7    1        -0.4944220756E-01      0.1119784272E+00
          0                 3           1             4    7     1       0.6226442868E-04       4    7    1         0.3460954812E-02      0.7849124855E-02

    ------------------------------------------------
       NWT REQUIRED            3 OUTER ITERATIONS 
       AND A TOTAL OF          5 INNER ITERATIONS.
    ------------------------------------------------

 NO OUTPUT CONTROL FOR STRESS PERIOD   25   TIME STEP   20
 
 SOLVING FOR HEAD 
                                                   Max.-Head-Change                         Max.-Flux-Residual
  Residual-Control   Outer-Iter.   Inner-Iter.     Column Row Layer    Maximum-Head-Change  Column Row Layer    Maximum-Flux-Residual          L2-NORM 
          0                 1           2             4    7     1       0.9293286065E-02       4    7    1         0.4887828628E+00      0.1112680017E+01
          0                 2           2             4    7     1      -0.9039851737E-03       4    7    1        -0.4887841150E-01      0.1109570686E+00
          0                 3           1             4    7     1       0.6155802239E-04       4    7    1         0.3421489096E-02      0.7777674178E-02

    ------------------------------------------------
       NWT REQUIRED            3 OUTER ITERATIONS 
       AND A TOTAL OF          5 INNER ITERATIONS.
    ------------------------------------------------

 NO OUTPUT CONTROL FOR STRESS PERIOD   25   TIME STEP   21
 
 SOLVING FOR HEAD 
                                                   Max.-Head-Change                         Max.-Flux-Residual
  Residual-Control   Outer-Iter.   Inner-Iter.     Column Row Layer    Maximum-Head-Change  Column Row Layer    Maximum-Flux-Residual          L2-NORM 
          0                 1           2             4    7     1       0.9188331267E-02       4    7    1         0.4832344928E+00      0.1102647074E+01
          0                 2           2             4    7     1      -0.8937758893E-03       4    7    1        -0.4832357150E-01      0.1099523329E+00
          0                 3           1             4    7     1       0.6086280886E-04       4    7    1         0.3382650329E-02      0.7707391870E-02

    ------------------------------------------------
       NWT REQUIRED            3 OUTER ITERATIONS 
       AND A TOTAL OF          5 INNER ITERATIONS.
    ------------------------------------------------

 NO OUTPUT CONTROL FOR STRESS PERIOD   25   TIME STEP   22
 
 SOLVING FOR HEAD 
                                                   Max.-Head-Change                         Max.-Flux-Residual
  Residual-Control   Outer-Iter.   Inner-Iter.     Column Row Layer    Maximum-Head-Change  Column Row Layer    Maximum-Flux-Residual          L2-NORM 
          0                 1           2             4    7     1       0.9085310369E-02       4    7    1         0.4777885708E+00      0.1092786475E+01
          0                 2           2             4    7     1      -0.8837547222E-03       4    7    1        -0.4777897639E-01      0.1089648391E+00
          0                 3           1             4    7     1       0.6018040503E-04       4    7    1         0.3344528687E-02      0.7638315670E-02

    ------------------------------------------------
       NWT REQUIRED            3 OUTER ITERATIONS 
       AND A TOTAL OF          5 INNER ITERATIONS.
    ------------------------------------------------

 NO OUTPUT CONTROL FOR STRESS PERIOD   25   TIME STEP   23
 
 SOLVING FOR HEAD 
                                                   Max.-Head-Change                         Max.-Flux-Residual
  Residual-Control   Outer-Iter.   Inner-Iter.     Column Row Layer    Maximum-Head-Change  Column Row Layer    Maximum-Flux-Residual          L2-NORM 
          0                 1           2             4    7     1       0.8983898284E-02       4    7    1         0.4724282206E+00      0.1083059992E+01
          0                 2           2             4    7     1      -0.8738900495E-03       4    7    1        -0.4724293855E-01      0.1079907646E+00
          0                 3           1             4    7     1       0.5950865694E-04       4    7    1         0.3307006019E-02      0.7570189699E-02

    ------------------------------------------------
       NWT REQUIRED            3 OUTER ITERATIONS 
       AND A TOTAL OF          5 INNER ITERATIONS.
    ------------------------------------------------

 NO OUTPUT CONTROL FOR STRESS PERIOD   25   TIME STEP   24
 
 SOLVING FOR HEAD 
                                                   Max.-Head-Change                         Max.-Flux-Residual
  Residual-Control   Outer-Iter.   Inner-Iter.     Column Row Layer    Maximum-Head-Change  Column Row Layer    Maximum-Flux-Residual          L2-NORM 
          0                 1           2             4    7     1       0.8883795945E-02       4    7    1         0.4671365732E+00      0.1073483233E+01
          0                 2           2             4    7     1      -0.8641527802E-03       4    7    1        -0.4671377103E-01      0.1070316623E+00
          0                 3           1             4    7     1       0.5884558576E-04       4    7    1         0.3269964306E-02      0.7503104798E-02

    ------------------------------------------------
       NWT REQUIRED            3 OUTER ITERATIONS 
       AND A TOTAL OF          5 INNER ITERATIONS.
    ------------------------------------------------

 NO OUTPUT CONTROL FOR STRESS PERIOD   25   TIME STEP   25
 
 SOLVING FOR HEAD 
                                                   Max.-Head-Change                         Max.-Flux-Residual
  Residual-Control   Outer-Iter.   Inner-Iter.     Column Row Layer    Maximum-Head-Change  Column Row Layer    Maximum-Flux-Residual          L2-NORM 
          0                 1           2             4    7     1       0.8785798660E-02       4    7    1         0.4619572115E+00      0.1064077304E+01
          0                 2           2             4    7     1      -0.8546202773E-03       4    7    1        -0.4619583219E-01      0.1060896606E+00
          0                 3           1             4    7     1       0.5819645819E-04       4    7    1         0.3233708606E-02      0.7437213704E-02

    ------------------------------------------------
       NWT REQUIRED            3 OUTER ITERATIONS 
       AND A TOTAL OF          5 INNER ITERATIONS.
    ------------------------------------------------

 NO OUTPUT CONTROL FOR STRESS PERIOD   25   TIME STEP   26
 
 SOLVING FOR HEAD 
                                                   Max.-Head-Change                         Max.-Flux-Residual
  Residual-Control   Outer-Iter.   Inner-Iter.     Column Row Layer    Maximum-Head-Change  Column Row Layer    Maximum-Flux-Residual          L2-NORM 
          0                 1           2             4    7     1       0.8689034969E-02       4    7    1         0.4568427508E+00      0.1054797108E+01
          0                 2           2             4    7     1      -0.8452077695E-03       4    7    1        -0.4568438349E-01      0.1051602372E+00
          0                 3           1             4    7     1       0.5755550129E-04       4    7    1         0.3197907194E-02      0.7372201996E-02

    ------------------------------------------------
       NWT REQUIRED            3 OUTER ITERATIONS 
       AND A TOTAL OF          5 INNER ITERATIONS.
    ------------------------------------------------

 NO OUTPUT CONTROL FOR STRESS PERIOD   25   TIME STEP   27
 
 SOLVING FOR HEAD 
                                                   Max.-Head-Change                         Max.-Flux-Residual
  Residual-Control   Outer-Iter.   Inner-Iter.     Column Row Layer    Maximum-Head-Change  Column Row Layer    Maximum-Flux-Residual          L2-NORM 
          0                 1           2             4    7     1       0.8594032334E-02       4    7    1         0.4518218501E+00      0.1045662122E+01
          0                 2           2             4    7     1      -0.8367323855E-03       4    7    1        -0.4523978030E-01      0.1042646114E+00
          0                 3           1             4    7     1       0.5697835719E-04       4    7    1         0.3166784835E-02      0.7309551114E-02

    ------------------------------------------------
       NWT REQUIRED            3 OUTER ITERATIONS 
       AND A TOTAL OF          5 INNER ITERATIONS.
    ------------------------------------------------

 NO OUTPUT CONTROL FOR STRESS PERIOD   25   TIME STEP   28
 
 SOLVING FOR HEAD 
                                                   Max.-Head-Change                         Max.-Flux-Residual
  Residual-Control   Outer-Iter.   Inner-Iter.     Column Row Layer    Maximum-Head-Change  Column Row Layer    Maximum-Flux-Residual          L2-NORM 
          0                 1           2             4    7     1       0.8497243071E-02       4    7    1         0.4468366519E+00      0.1036657296E+01
          0                 2           2             4    7     1      -0.8265517665E-03       4    7    1        -0.4468378204E-01      0.1033434553E+00
          0                 3           1             4    7     1       0.5628509550E-04       4    7    1         0.3127864981E-02      0.7245126833E-02

    ------------------------------------------------
       NWT REQUIRED            3 OUTER ITERATIONS 
       AND A TOTAL OF          5 INNER ITERATIONS.
    ------------------------------------------------

 NO OUTPUT CONTROL FOR STRESS PERIOD   25   TIME STEP   29
 
 SOLVING FOR HEAD 
                                                   Max.-Head-Change                         Max.-Flux-Residual
  Residual-Control   Outer-Iter.   Inner-Iter.     Column Row Layer    Maximum-Head-Change  Column Row Layer    Maximum-Flux-Residual          L2-NORM 
          0                 1           2             4    7     1       0.8402861269E-02       4    7    1         0.4418404985E+00      0.1027753956E+01
          0                 2           2             4    7     1      -0.8173709441E-03       4    7    1        -0.4418416354E-01      0.1024517343E+00
          0                 3           1             4    7     1       0.5565991572E-04       4    7    1         0.3092891685E-02      0.7182758365E-02

    ------------------------------------------------
       NWT REQUIRED            3 OUTER ITERATIONS 
       AND A TOTAL OF          5 INNER ITERATIONS.
    ------------------------------------------------

 NO OUTPUT CONTROL FOR STRESS PERIOD   25   TIME STEP   30



 STREAM LISTING     PERIOD     25   STEP       30

 LAYER ROW COL. STREAM  RCH.  FLOW INTO     FLOW TO   FLOW OUT OF   OVRLND.     DIRECT     STREAM       STREAM     STREAM     STREAM   STREAMBED  STREAMBED
                SEG.NO.  NO.  STRM. RCH.    AQUIFER    STRM. RCH.    RUNOFF     PRECIP       ET          HEAD       DEPTH      WIDTH   CONDCTNC.   GRADIENT

   1    1    1     1     1    2.0000E+01  2.2070E-01   1.9779E+01  0.000E+00  0.000E+00  0.000E+00  1.09415E+03  1.098E+00  1.197E+01  5.385E-02  1.366E+00
   1    2    2     1     2    1.9779E+01  3.4051E-01   1.9439E+01  0.000E+00  0.000E+00  0.000E+00  1.08915E+03  1.094E+00  1.188E+01  8.318E-02  1.365E+00
   1    3    3     1     3    1.9439E+01  2.8917E-01   1.9150E+01  0.000E+00  0.000E+00  0.000E+00  1.08351E+03  1.089E+00  1.179E+01  7.072E-02  1.363E+00
   1    3    4     1     4    1.9150E+01  2.6526E-01   1.8884E+01  0.000E+00  0.000E+00  0.000E+00  1.07849E+03  1.084E+00  1.170E+01  6.495E-02  1.361E+00
   1    4    5     2     1    1.6884E+01  3.0802E-01   1.6576E+01  0.000E+00  0.000E+00  0.000E+00  1.07288E+03  9.490E-01  1.200E+01  7.800E-02  1.316E+00
   1    5    6     2     2    1.6576E+01  2.3638E-01   1.6340E+01  0.000E+00  0.000E+00  0.000E+00  1.06745E+03  9.397E-01  1.200E+01  6.000E-02  1.313E+00
   1    6    6     2     3    1.6340E+01  2.3589E-01   1.6104E+01  0.000E+00  0.000E+00  0.000E+00  1.06272E+03  9.316E-01  1.200E+01  6.000E-02  1.311E+00
   1    7    6     2     4    1.6104E+01  2.3540E-01   1.5869E+01  0.000E+00  0.000E+00  0.000E+00  1.05800E+03  9.234E-01  1.200E+01  6.000E-02  1.308E+00
   1    8    6     2     5    1.5869E+01  2.3491E-01   1.5634E+01  0.000E+00  0.000E+00  0.000E+00  1.05327E+03  9.152E-01  1.200E+01  6.000E-02  1.305E+00
   1    3    5     3     1    2.0000E+00  2.8252E-01   1.7175E+00  0.000E+00  0.000E+00  0.000E+00  1.07555E+03  1.909E+00  9.636E+00  7.227E-02  1.955E+00
   1    3    6     3     2    1.7175E+00  2.4905E-01   1.4684E+00  0.000E+00  0.000E+00  0.000E+00  1.07264E+03  1.727E+00  8.909E+00  6.682E-02  1.864E+00
   1    3    7     3     3    1.4684E+00  1.9718E-01   1.2712E+00  0.000E+00  0.000E+00  0.000E+00  1.06987E+03  1.555E+00  8.218E+00  5.547E-02  1.777E+00
   1    4    8     3     4    1.2712E+00  2.2567E-01   1.0456E+00  0.000E+00  0.000E+00  0.000E+00  1.06682E+03  1.364E+00  7.455E+00  6.709E-02  1.682E+00
   1    5    8     3     5    1.0456E+00  1.5790E-01   8.8768E-01  0.000E+00  0.000E+00  0.000E+00  1.06362E+03  1.164E+00  6.655E+00  4.991E-02  1.582E+00
   1    6    8     3     6    8.8768E-01  5.5980E-02   8.3170E-01  0.000E+00  0.000E+00  0.000E+00  1.06158E+03  1.036E+00  6.145E+00  1.844E-02  1.518E+00
   1    5   10     4     1    1.0000E+01  9.0919E-02   9.9091E+00  0.000E+00  0.000E+00  0.000E+00  1.07836E+03  6.368E-01  1.000E+01  2.500E-02  1.212E+00
   1    5    9     4     2    9.9091E+00  1.8158E-01   9.7275E+00  0.000E+00  0.000E+00  0.000E+00  1.07154E+03  6.315E-01  1.000E+01  5.000E-02  1.211E+00
   1    6    8     4     3    9.7275E+00  1.2689E-01   9.6006E+00  0.000E+00  0.000E+00  0.000E+00  1.06381E+03  6.256E-01  1.000E+01  3.500E-02  1.209E+00
   1    6    8     5     1    1.0432E+01  2.2686E-01   1.0205E+01  0.000E+00  0.000E+00  0.000E+00  1.05868E+03  6.790E-01  1.542E+01  6.166E-02  1.226E+00
   1    7    7     5     2    1.0205E+01  2.7894E-01   9.9265E+00  0.000E+00  0.000E+00  0.000E+00  1.05417E+03  6.732E-01  1.519E+01  7.594E-02  1.224E+00
   1    8    7     5     3    9.9265E+00  1.9221E-01   9.7343E+00  0.000E+00  0.000E+00  0.000E+00  1.04992E+03  6.676E-01  1.497E+01  5.241E-02  1.223E+00
   1    8    6     5     4    9.7343E+00  1.3577E-01   9.5985E+00  0.000E+00  0.000E+00  0.000E+00  1.04691E+03  6.637E-01  1.482E+01  3.706E-02  1.221E+00
   1    9    6     6     1    2.5232E+01  2.5345E-01   2.4979E+01  0.000E+00  0.000E+00  0.000E+00  1.04395E+03  1.224E+00  1.200E+01  6.000E-02  1.408E+00
   1   10    7     6     2    2.4979E+01  2.5300E-01   2.4726E+01  0.000E+00  0.000E+00  0.000E+00  1.03940E+03  1.217E+00  1.200E+01  6.000E-02  1.406E+00
   1   11    7     6     3    2.4726E+01  2.5256E-01   2.4473E+01  0.000E+00  0.000E+00  0.000E+00  1.03485E+03  1.209E+00  1.200E+01  6.000E-02  1.403E+00
   1   12    7     6     4    2.4473E+01  2.5211E-01   2.4221E+01  0.000E+00  0.000E+00  0.000E+00  1.03029E+03  1.202E+00  1.200E+01  6.000E-02  1.401E+00
   1   13    7     6     5    2.4221E+01  1.8824E-03   2.4219E+01  0.000E+00  0.000E+00  0.000E+00  1.02711E+03  1.198E+00  1.200E+01  2.400E-02  2.614E-02
   1   14    9     7     1    1.5000E+02  1.3369E+00   1.4866E+02  0.000E+00  0.000E+00  0.000E+00  1.03987E+03  2.288E+00  5.529E+01  5.593E-01  7.968E-01
   1   13    8     7     2    1.4866E+02  1.8455E+00   1.4682E+02  0.000E+00  0.000E+00  0.000E+00  1.03478E+03  2.279E+00  5.526E+01  6.148E-01  1.001E+00
   1   13    7     7     3    1.4682E+02  1.4860E+00   1.4533E+02  0.000E+00  0.000E+00  0.000E+00  1.02969E+03  2.270E+00  5.522E+01  5.584E-01  8.870E-01
   1   13    6     8     1    1.6955E+02  9.3977E-01   1.6861E+02  0.000E+00  0.000E+00  0.000E+00  1.02482E+03  2.946E+00  4.272E+01  4.353E-01  7.196E-01
   1   13    5     8     2    1.6861E+02  1.9171E-01   1.6842E+02  0.000E+00  0.000E+00  0.000E+00  1.01857E+03  2.943E+00  4.267E+01  4.348E-01  1.470E-01
   1   13    4     8     3    1.6842E+02 -2.4040E+00   1.7082E+02  0.000E+00  0.000E+00  0.000E+00  1.01232E+03  2.950E+00  4.277E+01  4.359E+00 -1.839E-01
   1   13    3     8     4    1.7082E+02 -3.6319E+00   1.7446E+02  0.000E+00  0.000E+00  0.000E+00  1.00609E+03  2.969E+00  4.305E+01  4.387E+00 -2.759E-01
   1   13    2     8     5    1.7446E+02 -2.5689E+00   1.7702E+02  0.000E+00  0.000E+00  0.000E+00  9.99864E+02  2.989E+00  4.334E+01  4.417E+00 -1.939E-01
   1   13    1     8     6    1.7702E+02 -1.9721E+00   1.7900E+02  0.000E+00  0.000E+00  0.000E+00  9.94879E+02  3.004E+00  4.355E+01  2.663E+00 -2.469E-01





UNSATURATED ZONE PACKAGE VOLUMETRIC BUDGET FOR  TIME STEP    30 STRESS PERIOD   25
  ------------------------------------------------------------------------------



     CUMULATIVE VOLUMES      L**3       RATES FOR THIS TIME STEP      L**3/T
     ------------------                 ------------------------

           IN:                                      IN:
           ---                                      ---
        INFILTRATION =   372117556.3597          INFILTRATION =           0.8475

          OUT:                                     OUT:
          ----                                     ----
              UZF ET =   197391480.5843                UZF ET =           0.0326
        UZF RECHARGE =    11434035.3362          UZF RECHARGE =           0.0341

            IN - OUT =   163292040.4392              IN - OUT =           0.7809

          STORAGE:                                 STORAGE:
          --------                                 --------
      STORAGE CHANGE =   163415502.8163        STORAGE CHANGE =           0.7809

 PERCENT DISCREPANCY IS DIFFERENCE BETWEEN IN-OUT MINUS CHANGE IN STORAGE
 DIVIDED BY THE AVERAGE OF IN AND OUT TIMES 100

 PERCENT DISCREPANCY =          -0.01     PERCENT DISCREPANCY =          -0.00






1
  VOLUMETRIC BUDGET FOR ENTIRE MODEL AT END OF TIME STEP   30, STRESS PERIOD  25
  ------------------------------------------------------------------------------

     CUMULATIVE VOLUMES      L**3       RATES FOR THIS TIME STEP      L**3/T
     ------------------                 ------------------------

           IN:                                      IN:
           ---                                      ---
               AWU WELLS =   318590336.0000                 AWU WELLS =           0.0000
      DIVERSION SEGMENTS =           0.0000        DIVERSION SEGMENTS =           0.0000
           GW IRRIGATION =           0.0000             GW IRRIGATION =           0.0000
           SW IRRIGATION =           0.0000             SW IRRIGATION =           0.0000
        SYSTEM LOSSES GW =           0.0000          SYSTEM LOSSES GW =           0.0000
        SYSTEM LOSSES SW =           0.0000          SYSTEM LOSSES SW =           0.0000

                TOTAL IN =   318590336.0000                  TOTAL IN =           0.0000

          OUT:                                     OUT:
          ----                                     ----
               AWU WELLS =           0.0000                 AWU WELLS =           0.0000
      DIVERSION SEGMENTS =           0.0000        DIVERSION SEGMENTS =           0.0000
           GW IRRIGATION =   318590336.0000             GW IRRIGATION =           0.0000
           SW IRRIGATION =           0.0000             SW IRRIGATION =           0.0000
        SYSTEM LOSSES GW =           0.0000          SYSTEM LOSSES GW =           0.0000
        SYSTEM LOSSES SW =           0.0000          SYSTEM LOSSES SW =           0.0000

               TOTAL OUT =   318590336.0000                 TOTAL OUT =           0.0000

                IN - OUT =           0.0000                  IN - OUT =           0.0000

     PERCENT DISCREPANCY =           0.00         PERCENT DISCREPANCY =           0.00



1
  VOLUMETRIC BUDGET FOR ENTIRE MODEL AT END OF TIME STEP   30, STRESS PERIOD  25
  ------------------------------------------------------------------------------

     CUMULATIVE VOLUMES      L**3       RATES FOR THIS TIME STEP      L**3/T
     ------------------                 ------------------------

           IN:                                      IN:
           ---                                      ---
             STORAGE     =   552214592.0000               STORAGE     =           2.5746
       CONSTANT HEAD     =           0.0000         CONSTANT HEAD     =           0.0000
     HEAD DEP BOUNDS     =    18042054.0000       HEAD DEP BOUNDS     =           0.2858
      STREAM LEAKAGE     =   793620608.0000        STREAM LEAKAGE     =          11.5806
        UZF RECHARGE     =    11434036.0000          UZF RECHARGE     =       3.4062E-02
               GW ET     =           0.0000                 GW ET     =           0.0000
     SURFACE LEAKAGE     =           0.0000       SURFACE LEAKAGE     =           0.0000
           AWU WELLS     =           0.0000             AWU WELLS     =           0.0000

                TOTAL IN =  1375311232.0000                  TOTAL IN =          14.4752

          OUT:                                     OUT:
          ----                                     ----
             STORAGE     =   333397728.0000               STORAGE     =           3.5993
       CONSTANT HEAD     =           0.0000         CONSTANT HEAD     =           0.0000
     HEAD DEP BOUNDS     =    18290450.0000       HEAD DEP BOUNDS     =           0.2895
      STREAM LEAKAGE     =   594112960.0000        STREAM LEAKAGE     =          10.5769
        UZF RECHARGE     =           0.0000          UZF RECHARGE     =           0.0000
               GW ET     =   110924856.0000                 GW ET     =       9.6005E-03
     SURFACE LEAKAGE     =           0.0000       SURFACE LEAKAGE     =           0.0000
           AWU WELLS     =   318590336.0000             AWU WELLS     =           0.0000

               TOTAL OUT =  1375316352.0000                 TOTAL OUT =          14.4754

                IN - OUT =       -5120.0000                  IN - OUT =      -2.1076E-04

     PERCENT DISCREPANCY =          -0.00         PERCENT DISCREPANCY =          -0.00






         TIME SUMMARY AT END OF TIME STEP   30 IN STRESS PERIOD   25
                    SECONDS     MINUTES      HOURS       DAYS        YEARS
                    -----------------------------------------------------------
   TIME STEP LENGTH  87600.      1460.0      24.333      1.0139     2.77588E-03
 STRESS PERIOD TIME 2.62800E+06  43800.      730.00      30.417     8.32763E-02
         TOTAL TIME 6.31584E+07 1.05264E+06  17544.      731.00      2.0014    
1

 Run end date and time (yyyy/mm/dd hh:mm:ss): 2018/08/28 12:20:03
 Elapsed run time:  5.067 Seconds

