                                  MODFLOW-NWT-SWR1 
      U.S. GEOLOGICAL SURVEY MODULAR FINITE-DIFFERENCE GROUNDWATER-FLOW MODEL
                            VERSION 1.1.4, 4/01/2018
                    BASED ON MODFLOW-2005 VERSION 1.11.00 08/08/2013

 LIST FILE: Agwater1.lst
                         UNIT    9

 OPENING Agwater1.ba6
 FILE TYPE:BAS6   UNIT   75   STATUS:OLD    
 FORMAT:FORMATTED              ACCESS:SEQUENTIAL          

 OPENING Agwater1.upw
 FILE TYPE:UPW   UNIT    7   STATUS:OLD    
 FORMAT:FORMATTED              ACCESS:SEQUENTIAL          

 OPENING Agwater1.dis
 FILE TYPE:DIS   UNIT    8   STATUS:OLD    
 FORMAT:FORMATTED              ACCESS:SEQUENTIAL          

 OPENING Agwater1.nwt
 FILE TYPE:NWT   UNIT   13   STATUS:OLD    
 FORMAT:FORMATTED              ACCESS:SEQUENTIAL          

 OPENING Agwater1.oc
 FILE TYPE:OC   UNIT   14   STATUS:OLD    
 FORMAT:FORMATTED              ACCESS:SEQUENTIAL          

 OPENING Agwater1.sfr
 FILE TYPE:SFR   UNIT   15   STATUS:OLD    
 FORMAT:FORMATTED              ACCESS:SEQUENTIAL          

 OPENING Agwater1.ghb
 FILE TYPE:GHB   UNIT   17   STATUS:OLD    
 FORMAT:FORMATTED              ACCESS:SEQUENTIAL          

 OPENING Agwater1.uzf
 FILE TYPE:UZF   UNIT   19   STATUS:OLD    
 FORMAT:FORMATTED              ACCESS:SEQUENTIAL          

 OPENING Agwater1.gag
 FILE TYPE:GAGE   UNIT   32   STATUS:OLD    
 FORMAT:FORMATTED              ACCESS:SEQUENTIAL          

 OPENING seg1.tab
 FILE TYPE:DATA   UNIT   55   STATUS:UNKNOWN
 FORMAT:FORMATTED              ACCESS:SEQUENTIAL          

 OPENING seg9.tab
 FILE TYPE:DATA   UNIT   56   STATUS:UNKNOWN
 FORMAT:FORMATTED              ACCESS:SEQUENTIAL          

 OPENING Agwater1.awu
 FILE TYPE:AWU   UNIT   57   STATUS:OLD    
 FORMAT:FORMATTED              ACCESS:SEQUENTIAL          

 OPENING Agwater1.hed
 FILE TYPE:DATA   UNIT   62   STATUS:UNKNOWN
 FORMAT:FORMATTED              ACCESS:SEQUENTIAL          

 OPENING Agwater1.ts9
 FILE TYPE:DATA   UNIT  105   STATUS:UNKNOWN
 FORMAT:FORMATTED              ACCESS:SEQUENTIAL          

 OPENING Agwater1.ts5
 FILE TYPE:DATA   UNIT  106   STATUS:UNKNOWN
 FORMAT:FORMATTED              ACCESS:SEQUENTIAL          

 OPENING Agwater1.uzfot
 FILE TYPE:DATA(BINARY)   UNIT   61   STATUS:UNKNOWN
 FORMAT:BINARY                 ACCESS:SEQUENTIAL          

 OPENING Agwater1cbc.unf
 FILE TYPE:DATA(BINARY)   UNIT  102   STATUS:UNKNOWN
 FORMAT:BINARY                 ACCESS:SEQUENTIAL          

 OPENING welllist.unf
 FILE TYPE:DATA(BINARY)   UNIT  103   STATUS:UNKNOWN
 FORMAT:BINARY                 ACCESS:SEQUENTIAL          

 OPENING wellirrlist.unf
 FILE TYPE:DATA(BINARY)   UNIT  104   STATUS:UNKNOWN
 FORMAT:BINARY                 ACCESS:SEQUENTIAL          

 OPENING Agwater1.uzf1
 FILE TYPE:DATA   UNIT   65   STATUS:UNKNOWN
 FORMAT:FORMATTED              ACCESS:SEQUENTIAL          

 OPENING Agwater1.uzf2
 FILE TYPE:DATA   UNIT   66   STATUS:UNKNOWN
 FORMAT:FORMATTED              ACCESS:SEQUENTIAL          

 OPENING Agwater1.uzf3
 FILE TYPE:DATA   UNIT   67   STATUS:UNKNOWN
 FORMAT:FORMATTED              ACCESS:SEQUENTIAL          

 OPENING Agwater1.uzf4
 FILE TYPE:DATA   UNIT   68   STATUS:UNKNOWN
 FORMAT:FORMATTED              ACCESS:SEQUENTIAL          

 OPENING Agwater1.flw
 FILE TYPE:DATA   UNIT   81   STATUS:UNKNOWN
 FORMAT:FORMATTED              ACCESS:SEQUENTIAL          

 OPENING Agwater1.sg1
 FILE TYPE:DATA   UNIT   83   STATUS:UNKNOWN
 FORMAT:FORMATTED              ACCESS:SEQUENTIAL          

 OPENING Agwater1.sg2
 FILE TYPE:DATA   UNIT   84   STATUS:UNKNOWN
 FORMAT:FORMATTED              ACCESS:SEQUENTIAL          

 OPENING Agwater1.sg3
 FILE TYPE:DATA   UNIT   85   STATUS:UNKNOWN
 FORMAT:FORMATTED              ACCESS:SEQUENTIAL          

 OPENING Agwater1.sg4
 FILE TYPE:DATA   UNIT   86   STATUS:UNKNOWN
 FORMAT:FORMATTED              ACCESS:SEQUENTIAL          

 OPENING Agwater1.sg5
 FILE TYPE:DATA   UNIT   87   STATUS:UNKNOWN
 FORMAT:FORMATTED              ACCESS:SEQUENTIAL          

 OPENING Agwater1.sg6
 FILE TYPE:DATA   UNIT   88   STATUS:UNKNOWN
 FORMAT:FORMATTED              ACCESS:SEQUENTIAL          

 OPENING Agwater1.sg7
 FILE TYPE:DATA   UNIT   89   STATUS:UNKNOWN
 FORMAT:FORMATTED              ACCESS:SEQUENTIAL          

 OPENING Agwater1.sg8
 FILE TYPE:DATA   UNIT   90   STATUS:UNKNOWN
 FORMAT:FORMATTED              ACCESS:SEQUENTIAL          

 OPENING Agwater1.sg9
 FILE TYPE:DATA   UNIT   91   STATUS:UNKNOWN
 FORMAT:FORMATTED              ACCESS:SEQUENTIAL          

 BAS -- BASIC PACKAGE, VERSION 1.1.4, 4/01/2018 INPUT READ FROM UNIT   75
 
 MODFLOW was compiled using mixed precision
 Precision of REAL variables:           6
 Precision of DOUBLE PRECISION variables:          15

 DISCRETIZATION INPUT DATA READ FROM UNIT    8
 #Test problem 2-- Discretization input
 #Example problem using the UZF1 Package
    1 LAYERS        15 ROWS        10 COLUMNS
   25 STRESS PERIOD(S) IN SIMULATION
 MODEL TIME UNIT IS SECONDS
 MODEL LENGTH UNIT IS FEET
  Confining bed flag for each layer:
   0

                     DELR =   5000.00    

                     DELC =   5000.00    



           TOP ELEVATION OF LAYER 1
 READING ON UNIT    8 WITH FORMAT: (10F7.0)            

            1           2           3           4           5           6           7           8           9          10
 ........................................................................................................................
   1    1105.       1105.       0.000       0.000       0.000       0.000       0.000       0.000       0.000       0.000    
   2    1105.       1095.       1105.       0.000       0.000       1100.       1100.       1110.       0.000       0.000    
   3    0.000       1100.       1085.       1080.       1078.       1076.       1073.       1090.       0.000       0.000    
   4    1110.       1100.       1090.       1085.       1076.       1080.       1080.       1070.       1100.       0.000    
   5    1110.       1100.       1085.       1080.       1078.       1074.       1077.       1066.       1075.       1080.    
   6    1105.       1095.       1080.       1077.       1073.       1069.       1070.       1063.       1085.       1095.    
   7    1105.       1090.       1075.       1072.       1070.       1065.       1065.       1069.       1090.       0.000    
   8    0.000       1080.       1070.       1068.       1063.       1060.       1063.       1067.       1090.       0.000    
   9    0.000       1075.       1065.       1062.       1058.       1052.       1055.       1065.       1090.       0.000    
  10    0.000       1070.       1060.       1055.       1046.       1046.       1044.       1060.       1088.       1100.    
  11    0.000       1055.       1050.       1045.       1041.       1042.       1040.       1050.       1075.       0.000    
  12    1027.       1028.       1028.       1032.       1032.       1033.       1032.       1040.       1060.       0.000    
  13    997.0       1004.       1008.       1014.       1020.       1027.       1032.       1038.       1050.       0.000    
  14    0.000       1030.       1040.       1045.       1050.       1050.       1050.       1050.       1044.       0.000    
  15    0.000       0.000       1080.       1080.       1080.       1080.       0.000       0.000       0.000       0.000    



             MODEL LAYER BOTTOM EL. FOR LAYER   1
 READING ON UNIT    8 WITH FORMAT: (10F7.0)            

            1           2           3           4           5           6           7           8           9          10
 ........................................................................................................................
   1    1000.       1000.       0.000       0.000       0.000       0.000       0.000       0.000       0.000       0.000    
   2    1000.       900.0       900.0       0.000       0.000       950.0       950.0       950.0       0.000       0.000    
   3    0.000       850.0       670.0       680.0       680.0       770.0       770.0       890.0       0.000       0.000    
   4    925.0       850.0       650.0       650.0       650.0       680.0       740.0       850.0       950.0       0.000    
   5    925.0       800.0       650.0       600.0       600.0       600.0       650.0       720.0       850.0       950.0    
   6    925.0       800.0       650.0       600.0       550.0       600.0       650.0       720.0       850.0       970.0    
   7    925.0       800.0       650.0       600.0       550.0       600.0       650.0       720.0       950.0       0.000    
   8    0.000       850.0       700.0       650.0       570.0       600.0       700.0       850.0       950.0       0.000    
   9    0.000       850.0       700.0       650.0       540.0       580.0       700.0       850.0       950.0       0.000    
  10    0.000       850.0       700.0       630.0       530.0       580.0       650.0       800.0       900.0       950.0    
  11    0.000       850.0       700.0       620.0       580.0       620.0       700.0       800.0       900.0       0.000    
  12    900.0       830.0       710.0       640.0       600.0       650.0       700.0       800.0       900.0       0.000    
  13    900.0       810.0       750.0       700.0       650.0       700.0       750.0       800.0       900.0       0.000    
  14    0.000       950.0       850.0       850.0       850.0       850.0       850.0       850.0       850.0       0.000    
  15    0.000       0.000       950.0       950.0       950.0       950.0       0.000       0.000       0.000       0.000    


 STRESS PERIOD     LENGTH       TIME STEPS     MULTIPLIER FOR DELT    SS FLAG
 ----------------------------------------------------------------------------
        1         86400.00          1                    1.000         SS
        2         2628000.         30                    1.000         TR
        3         2628000.         30                    1.000         TR
        4         2628000.         30                    1.000         TR
        5         2628000.         30                    1.000         TR
        6         2628000.         30                    1.000         TR
        7         2628000.         30                    1.000         TR
        8         2628000.         30                    1.000         TR
        9         2628000.         30                    1.000         TR
       10         2628000.         30                    1.000         TR
       11         2628000.         30                    1.000         TR
       12         2628000.         30                    1.000         TR
       13         2628000.         30                    1.000         TR
       14         2628000.         30                    1.000         TR
       15         2628000.         30                    1.000         TR
       16         2628000.         30                    1.000         TR
       17         2628000.         30                    1.000         TR
       18         2628000.         30                    1.000         TR
       19         2628000.         30                    1.000         TR
       20         2628000.         30                    1.000         TR
       21         2628000.         30                    1.000         TR
       22         2628000.         30                    1.000         TR
       23         2628000.         30                    1.000         TR
       24         2628000.         30                    1.000         TR
       25         2628000.         30                    1.000         TR

 COMBINED STEADY-STATE AND TRANSIENT SIMULATION



 
 #Test Simulation 2-- Example problem using the UZF1 Package                     
 #Modified from example Problem 1 of SFR1 documentation report                   
 THE FREE FORMAT OPTION HAS BEEN SELECTED



                     BOUNDARY ARRAY FOR LAYER   1
 READING ON UNIT   75 WITH FORMAT: (20I4)              

                1           2           3           4           5           6           7           8           9          10
 ............................................................................................................................
   1            1           1           0           0           0           0           0           0           0           0
   2            1           1           1           0           0           1           1           1           0           0
   3            0           1           1           1           1           1           1           1           0           0
   4            1           1           1           1           1           1           1           1           1           0
   5            1           1           1           1           1           1           1           1           1           1
   6            1           1           1           1           1           1           1           1           1           1
   7            1           1           1           1           1           1           1           1           1           0
   8            0           1           1           1           1           1           1           1           1           0
   9            0           1           1           1           1           1           1           1           1           0
  10            0           1           1           1           1           1           1           1           1           1
  11            0           1           1           1           1           1           1           1           1           0
  12            1           1           1           1           1           1           1           1           1           0
  13            1           1           1           1           1           1           1           1           1           0
  14            0           1           1           1           1           1           1           1           1           0
  15            0           0           1           1           1           1           0           0           0           0

 AQUIFER HEAD WILL BE SET TO   6999.0     AT ALL NO-FLOW NODES (IBOUND=0).



                       INITIAL HEAD FOR LAYER   1
 READING ON UNIT   75 WITH FORMAT: (10F8.0)            

            1           2           3           4           5           6           7           8           9          10
 ........................................................................................................................
   1    1093.       1089.       6999.       6999.       6999.       6999.       6999.       6999.       6999.       6999.    
   2    1090.       1087.       1081.       6999.       6999.       1072.       1071.       1071.       6999.       6999.    
   3    6999.       1079.       1078.       1074.       1072.       1071.       1069.       1068.       6999.       6999.    
   4    1069.       1071.       1070.       1067.       1065.       1064.       1064.       1066.       1066.       6999.    
   5    1065.       1064.       1063.       1062.       1061.       1061.       1060.       1062.       1066.       1068.    
   6    1060.       1058.       1057.       1056.       1056.       1057.       1057.       1059.       1062.       1066.    
   7    1056.       1053.       1052.       1051.       1051.       1052.       1053.       1055.       1056.       6999.    
   8    6999.       1046.       1046.       1046.       1046.       1046.       1048.       1050.       1050.       6999.    
   9    6999.       1039.       1039.       1039.       1040.       1041.       1042.       1043.       1044.       6999.    
  10    6999.       1031.       1032.       1033.       1034.       1035.       1037.       1038.       1039.       1042.    
  11    6999.       1021.       1023.       1027.       1029.       1030.       1032.       1034.       1036.       6999.    
  12    1001.       1009.       1015.       1020.       1023.       1026.       1029.       1030.       1034.       6999.    
  13    994.5      1000.0       1007.       1013.       1019.       1024.       1029.       1034.       1036.       6999.    
  14    6999.       1004.       1009.       1014.       1019.       1024.       1029.       1035.       1039.       6999.    
  15    6999.       6999.       1012.       1015.       1019.       1022.       6999.       6999.       6999.       6999.    

 OUTPUT CONTROL IS SPECIFIED ONLY AT TIME STEPS FOR WHICH OUTPUT IS DESIRED
 HEADS WILL BE SAVED WITH FORMAT: (10F10.3)           
 SAVED HEADS WILL BE LABELED
 COMPACT CELL-BY-CELL BUDGET FILES WILL BE WRITTEN
 HEAD PRINT FORMAT CODE IS   4    DRAWDOWN PRINT FORMAT CODE IS   0
 HEADS WILL BE SAVED ON UNIT   62    DRAWDOWNS WILL BE SAVED ON UNIT    0
 # NWT Input File
 # Test Problem 3 for MODFLOW-NWT
 #HEADTOL  FLUXTOL MAXITEROUT THICKFACT LINMETH IPRNWT IBOTAV OPTIONS DBDREDUCE DBDINCREASE DBDGAMMA MOMFACT BACKFLAG MAXBACKITER BACKTOL BACKREDUCE

 NWT1 -- Newton Solver, VERSION 1.1.4, 4/01/2018
         INPUT READ FROM UNIT 13

 SPECIFIED OPTION:
 SOLVER INPUT VALUES ARE SPECIFIED BY USER
 ***XMD linear solver will be used***
 
   CONVERGENCE CRITERION OF   0.100000E-03 FOR HEAD SOLUTION
   AND A TOLERANCE OF   0.100000E+03 FOR FLOW SOLUTION AND 
   A MAXIMUM OF   500 OUTER ITERATIONS. 


   D-B-D REDUCTION FACTOR OF    0.990000E+00 AND 
   A D-B-D INCREASE FACTOR OF    0.100000E-04 AND 
   A D-B-D RELAXATION OF    0.000000E+00 AND 
   A MOMENTUM FACTOR OF    0.100000E+00 .


 ***BACKTRACKING IS INACTIVE***
 XMD -- LINEAR SOLUTION BY XMD PACKAGE VERSION 1.30
     BY MOTOMU IBARAKI, OHIO STATE UNIVERSITY, COLOMBUS, OH
                 INPUT READ FROM UNIT 13
 ACCELERATION METHOD                    (IACL) =         2
 NODE ORDERING FLAG                   (NORDER) =         0
 LEVEL OF FILL                         (LEVEL) =        10
 MAXIMUM NUMBER OF ORTHOGONALIZATIONS  (NORTH) =        10
 INDEX FOR USING REDUCED SYSTEM      (IREDSYS) =         1
 RESID. REDUCTION CONVERGE CRITERION  (RRCTOL) =  0.000000E+00
 INDEX FOR USING DROP TOLERANCE     (IDROPTOL) =         1
 DROP TOLERANCE VALUE                  (EPSRN) =  0.500000E-02
 CONVERGENCE CRITERIA OF           (HCLOSEXMD) =  0.100000E-03
 MAX. NUMBER OF LINEAR ITERATIONS  (MXITERXMD) =        50


 UPW1 -- UPSTREAM WEIGHTING FLOW PACKAGE, VERSION 1.1.4, 4/01/2018
         INPUT READ FROM UNIT  7

 #Layer-Property Flow Package input for test simulation 2
 CELL-BY-CELL FLOWS WILL BE SAVED ON UNIT  102
 No named parameters

   LAYER FLAGS:
 LAYER       LAYTYP          LAYAVG    CHANI           LAYVKA           LAYWET
 ---------------------------------------------------------------------------
    1             1             0     1.000E+00             0             0

   INTERPRETATION OF LAYER FLAGS:
                        INTERBLOCK     HORIZONTAL    DATA IN
         LAYER TYPE   TRANSMISSIVITY   ANISOTROPY   ARRAY VKA   WETTABILITY
 LAYER   (LAYTYP)        (LAYAVG)      (CHANI)     (LAYVKA)       (LAYWET)
 ---------------------------------------------------------------------------
    1   CONVERTIBLE      HARMONIC     1.000E+00    VERTICAL K  NON-WETTABLE



              HYD. COND. ALONG ROWS FOR LAYER   1
 READING ON UNIT    7 WITH FORMAT: (10F5.0)            

            1           2           3           4           5           6           7           8           9          10
 ........................................................................................................................
   1   2.0000E-03  2.0000E-03   0.000       0.000       0.000       0.000       0.000       0.000       0.000       0.000    
   2   4.0000E-04  2.0000E-03  2.0000E-03   0.000       0.000      4.0000E-04  4.0000E-04  4.0000E-04   0.000       0.000    
   3    0.000      4.0000E-04  2.0000E-03  2.0000E-03  4.0000E-04  4.0000E-04  4.0000E-04  4.0000E-04   0.000       0.000    
   4   4.0000E-04  4.0000E-04  4.0000E-04  2.0000E-03  2.0000E-03  2.0000E-03  4.0000E-04  4.0000E-04  4.0000E-04   0.000    
   5   4.0000E-04  4.0000E-04  4.0000E-04  2.0000E-03  2.0000E-03  2.0000E-03  2.0000E-03  2.0000E-03  2.0000E-03  2.0000E-03
   6   4.0000E-04  4.0000E-04  4.0000E-04  2.0000E-03  2.0000E-03  2.0000E-03  2.0000E-03  2.0000E-03  4.0000E-04  4.0000E-04
   7   4.0000E-04  4.0000E-04  4.0000E-04  2.0000E-03  2.0000E-03  2.0000E-03  2.0000E-03  2.0000E-03  4.0000E-04   0.000    
   8    0.000      4.0000E-04  4.0000E-04  2.0000E-03  2.0000E-03  2.0000E-03  2.0000E-03  4.0000E-04  4.0000E-04   0.000    
   9    0.000      4.0000E-04  4.0000E-04  2.0000E-03  2.0000E-03  2.0000E-03  2.0000E-03  4.0000E-04  4.0000E-04   0.000    
  10    0.000      4.0000E-04  4.0000E-04  2.0000E-03  2.0000E-03  2.0000E-03  2.0000E-03  4.0000E-04  4.0000E-04  4.0000E-04
  11    0.000      4.0000E-04  4.0000E-04  2.0000E-03  2.0000E-03  2.0000E-03  2.0000E-03  4.0000E-04  4.0000E-04   0.000    
  12   4.0000E-04  4.0000E-04  2.0000E-03  2.0000E-03  2.0000E-03  2.0000E-03  2.0000E-03  4.0000E-04  4.0000E-04   0.000    
  13   2.0000E-03  2.0000E-03  2.0000E-03  2.0000E-03  2.0000E-03  2.0000E-03  2.0000E-03  2.0000E-03  2.0000E-03   0.000    
  14    0.000      4.0000E-04  4.0000E-04  4.0000E-04  4.0000E-04  4.0000E-04  4.0000E-04  4.0000E-04  2.0000E-03   0.000    
  15    0.000       0.000      4.0000E-04  4.0000E-04  4.0000E-04  4.0000E-04   0.000       0.000       0.000       0.000    

      VERTICAL HYD. COND. =  1.000000E-06 FOR LAYER   1

         SPECIFIC STORAGE =  1.000000E-06 FOR LAYER   1



                     SPECIFIC YIELD FOR LAYER   1
 READING ON UNIT    7 WITH FORMAT: (10F5.0)            

            1           2           3           4           5           6           7           8           9          10
 ........................................................................................................................
   1   0.2000      0.2000       0.000       0.000       0.000       0.000       0.000       0.000       0.000       0.000    
   2   0.1000      0.2000      0.2000       0.000       0.000      0.1000      0.1000      0.1000       0.000       0.000    
   3    0.000      0.1000      0.2000      0.2000      0.1000      0.1000      0.1000      0.1000       0.000       0.000    
   4   0.1000      0.1000      0.1000      0.2000      0.2000      0.2000      0.1000      0.1000      0.1000       0.000    
   5   0.1000      0.1000      0.1000      0.2000      0.2000      0.2000      0.2000      0.2000      0.2000      0.2000    
   6   0.1000      0.1000      0.1000      0.2000      0.2000      0.2000      0.2000      0.2000      0.1000      0.1000    
   7   0.1000      0.1000      0.1000      0.2000      0.2000      0.2000      0.2000      0.2000      0.1000       0.000    
   8    0.000      0.1000      0.1000      0.2000      0.2000      0.2000      0.2000      0.1000      0.1000       0.000    
   9    0.000      0.1000      0.1000      0.2000      0.2000      0.2000      0.2000      0.1000      0.1000       0.000    
  10    0.000      0.1000      0.1000      0.2000      0.2000      0.2000      0.2000      0.1000      0.1000      0.1000    
  11    0.000      0.1000      0.1000      0.2000      0.2000      0.2000      0.2000      0.1000      0.1000       0.000    
  12   0.1000      0.1000      0.2000      0.2000      0.2000      0.2000      0.2000      0.1000      0.1000       0.000    
  13   0.2000      0.2000      0.2000      0.2000      0.2000      0.2000      0.2000      0.2000      0.2000       0.000    
  14    0.000      0.1000      0.1000      0.1000      0.1000      0.1000      0.1000      0.1000      0.2000       0.000    
  15    0.000       0.000      0.1000      0.1000      0.1000      0.1000       0.000       0.000       0.000       0.000    

 GHB -- GENERAL-HEAD BOUNDARY PACKAGE, VERSION 7, 5/2/2005
         INPUT READ FROM UNIT   17
 No named parameters
 MAXIMUM OF      2 ACTIVE GHB CELLS AT ONE TIME
 CELL-BY-CELL FLOWS WILL BE PRINTED WHEN ICBCFL NOT 0


     0 GHB parameters

 SFR7 -- STREAMFLOW ROUTING PACKAGE, VERSION 1.0.5, 2012-04-05
         INPUT READ FROM UNIT  15
 #SFR2 Package input for Testing supplimental pumping and irrigation
 No named parameters

 PROCESSING SFR2 OPTIONS
 
 
Stream loss will be calculated as a factor of the streambed hydraulic conductivity. Multiplication factor is equal to     0.1000000015E+00
          2 Specified inflow files will be read with a maximum of        759 row entries per file

 END PROCESSING SFR2 OPTIONS
 


 NUMBER OF STREAM REACHES IS   37

 NUMBER OF STREAM SEGMENTS IS    9

 NUMBER OF STREAM PARAMETERS IS    0

 NUMBER OF STREAM SEGMENTS DEFINED USING PARAMETERS IS              0

 MAXIMUM ERROR FOR STREAM LEAKAGE RATES IS  1.00E-06

 CONSTANT FOR MANNINGS EQUATION IS  1.4860E+00



 STREAM OUTPUT WILL BE WRITTEN TO FILE ON UNIT   81


   STREAM NETWORK DESCRIPTION: 

   LAYER    ROW    COL   SEGMENT   REACH     LENGTH
                          NUMBER   NUMBER    IN CELL        
   --------------------------------------------------
      1      1      1       1        1    4.5000E+03
      1      2      2       1        2    7.0000E+03
      1      3      3       1        3    6.0000E+03
      1      3      4       1        4    5.5500E+03
      1      4      5       2        1    6.5000E+03
      1      5      6       2        2    5.0000E+03
      1      6      6       2        3    5.0000E+03
      1      7      6       2        4    5.0000E+03
      1      8      6       2        5    5.0000E+03
      1      3      5       3        1    5.0000E+03
      1      3      6       3        2    5.0000E+03
      1      3      7       3        3    4.5000E+03
      1      4      8       3        4    6.0000E+03
      1      5      8       3        5    5.0000E+03
      1      6      8       3        6    2.0000E+03
      1      5     10       4        1    2.5000E+03
      1      5      9       4        2    5.0000E+03
      1      6      8       4        3    3.5000E+03
      1      6      8       5        1    4.0000E+03
      1      7      7       5        2    5.0000E+03
      1      8      7       5        3    3.5000E+03
      1      8      6       5        4    2.5000E+03
      1      9      6       6        1    5.0000E+03
      1     10      7       6        2    5.0000E+03
      1     11      7       6        3    5.0000E+03
      1     12      7       6        4    5.0000E+03
      1     13      7       6        5    2.0000E+03
      1     14      9       7        1    5.0000E+03
      1     13      8       7        2    5.5000E+03
      1     13      7       7        3    5.0000E+03
      1     13      6       8        1    5.0000E+03
      1     13      5       8        2    5.0000E+03
      1     13      4       8        3    5.0000E+03
      1     13      3       8        4    5.0000E+03
      1     13      2       8        5    5.0000E+03
      1     13      1       8        6    3.0000E+03
      1      6      8       9        1    5.0000E+01




 UZF1 -- UNSATURATED FLOW PACKAGE, VERSION 1.4, 02/06/2012
         INPUT READ FROM UNIT 19
 #UZF Package input for test simulation 2
 No named parameters

 PROCESSING UZF OPTIONS
 
 
 INITIAL WATER CONTENT (THTI) WILL BE 
READ FOR THE FIRST SS OR TR STRESS PERIOD
 
 
 RESIDUAL WATER CONTENT (THTR) WILL BE 
READ AND USED FOR THE FIRST TRANSIENT STRESS 
PERIOD
 
 #etsquare    0.1
 
INFILTRATION WILL BE REJECTED USING 
LAND SURFACE K
 
 
HYDRAULIC CONDUCTIVITY OF LAND SURFACE 
WILL BE READ
 

 END PROCESSING UZF OPTIONS



            AREAL EXTENT OF UZ FLOW
 READING ON UNIT   19 WITH FORMAT: (20I4)              

                1           2           3           4           5           6           7           8           9          10
 ............................................................................................................................
   1            1           1           0           0           0           0           0           0           0           0
   2            1           1           1           0           0           1           1           1           0           0
   3            0           1           1           1           1           1           1           1           0           0
   4            1           1           1           1           1           1           1           1           1           0
   5            1           1           1           1           1           1           1           1           1           1
   6            1           1           1           1           1           1           1           1           1           1
   7            1           1           1           1           1           1           1           1           1           0
   8            0           1           1           1           1           1           1           1           1           0
   9            0           1           1           1           1           1           1           1           1           0
  10            0           1           1           1           1           1           1           1           1           1
  11            0           1           1           1           1           1           1           1           1           0
  12            1           1           1           1           1           1           1           1           1           0
  13            1           1           1           1           1           1           1           1           1           0
  14            0           1           1           1           1           1           1           1           1           0
  15            0           0           1           1           1           1           0           0           0           0
 OPTION 1 -- RECHARGE IN UZF TO TOP LAYER ONLY 



            ROUTING OVERLAND RUNOFF
 READING ON UNIT   19 WITH FORMAT: (20I4)              

                1           2           3           4           5           6           7           8           9          10
 ............................................................................................................................
   1            1           1           0           0           0           0           0           0           0           0
   2            1           1           1           0           0           3           3           3           0           0
   3            0           1           1           1           3           3           3           3           0           0
   4            8           8           2           2           2           2           2           3           3           0
   5            8           8           8           8           2           2           2           3           4           4
   6            8           8           8           8           8           2           2           4           4           4
   7            8           8           8           8           8           2           5           5           5           0
   8            0           8           8           8           8           2           5           5           5           0
   9            0           8           8           8           8           6           6           6           6           0
  10            0           8           8           8           8           6           6           6           6           6
  11            0           8           8           8           8           8           6           6           7           0
  12            8           8           8           8           8           8           6           7           7           0
  13            8           8           8           8           8           8           7           7           7           0
  14            0           8           8           8           8           8           7           7           7           0
  15            0           0           8           8           8           8           0           0           0           0



               SATURATED VERTICAL K
 READING ON UNIT   19 WITH FORMAT: (10F4.0)            

            1           2           3           4           5           6           7           8           9          10
 ........................................................................................................................
   1   1.0000E-05  1.0000E-05   0.000       0.000       0.000       0.000       0.000       0.000       0.000       0.000    
   2   1.0000E-05  1.0000E-05  1.0000E-05   0.000       0.000      1.0000E-05  1.0000E-05  1.0000E-05   0.000       0.000    
   3    0.000      1.0000E-05  1.0000E-05  1.0000E-05  1.0000E-05  1.0000E-05  1.0000E-05  1.0000E-05   0.000       0.000    
   4   1.0000E-05  1.0000E-05  1.0000E-05  1.0000E-05  1.0000E-05  1.0000E-05  1.0000E-05  1.0000E-05  1.0000E-05   0.000    
   5   1.0000E-05  1.0000E-05  1.0000E-05  1.0000E-05  1.0000E-05  1.0000E-05  1.0000E-05  1.0000E-05  1.0000E-05  1.0000E-05
   6   1.0000E-05  1.0000E-05  1.0000E-05  1.0000E-05  1.0000E-05  1.0000E-05  1.0000E-05  1.0000E-05  1.0000E-05  1.0000E-05
   7   1.0000E-05  1.0000E-05  1.0000E-05  1.0000E-05  1.0000E-05  1.0000E-05  1.0000E-05  1.0000E-05  1.0000E-05   0.000    
   8    0.000      1.0000E-05  1.0000E-05  1.0000E-05  1.0000E-05  1.0000E-05  1.0000E-05  1.0000E-05  1.0000E-05   0.000    
   9    0.000      1.0000E-05  1.0000E-05  1.0000E-05  1.0000E-05  1.0000E-05  1.0000E-05  1.0000E-05  1.0000E-05   0.000    
  10    0.000      1.0000E-05  1.0000E-05  1.0000E-05  1.0000E-05  1.0000E-05  1.0000E-05  1.0000E-05  1.0000E-05  1.0000E-05
  11    0.000      1.0000E-05  1.0000E-05  1.0000E-05  1.0000E-05  1.0000E-05  1.0000E-05  1.0000E-05  1.0000E-05   0.000    
  12   1.0000E-05  1.0000E-05  1.0000E-05  1.0000E-05  1.0000E-05  1.0000E-05  1.0000E-05  1.0000E-05  1.0000E-05   0.000    
  13   1.0000E-05  1.0000E-05  1.0000E-05  1.0000E-05  1.0000E-05  1.0000E-05  1.0000E-05  1.0000E-05  1.0000E-05   0.000    
  14    0.000      1.0000E-05  1.0000E-05  1.0000E-05  1.0000E-05  1.0000E-05  1.0000E-05  1.0000E-05  1.0000E-05   0.000    
  15    0.000       0.000      1.0000E-05  1.0000E-05  1.0000E-05  1.0000E-05   0.000       0.000       0.000       0.000    



            LAND SURFACE VERTICAL K
 READING ON UNIT   19 WITH FORMAT: (10F4.0)            

            1           2           3           4           5           6           7           8           9          10
 ........................................................................................................................
   1   1.0000E-05  1.0000E-05   0.000       0.000       0.000       0.000       0.000       0.000       0.000       0.000    
   2   1.0000E-05  1.0000E-05  1.0000E-05   0.000       0.000      1.0000E-05  1.0000E-05  1.0000E-05   0.000       0.000    
   3    0.000      1.0000E-05  1.0000E-05  1.0000E-05  1.0000E-05  1.0000E-05  1.0000E-05  1.0000E-05   0.000       0.000    
   4   1.0000E-05  1.0000E-05  1.0000E-05  1.0000E-05  1.0000E-05  1.0000E-05  1.0000E-05  1.0000E-05  1.0000E-05   0.000    
   5   1.0000E-05  1.0000E-05  1.0000E-05  1.0000E-05  1.0000E-05  1.0000E-05  1.0000E-05  1.0000E-05  1.0000E-05  1.0000E-05
   6   1.0000E-05  1.0000E-05  1.0000E-05  1.0000E-05  1.0000E-05  1.0000E-05  1.0000E-05  1.0000E-05  1.0000E-05  1.0000E-05
   7   1.0000E-05  1.0000E-05  1.0000E-05  1.0000E-05  1.0000E-05  1.0000E-05  1.0000E-05  1.0000E-05  1.0000E-05   0.000    
   8    0.000      1.0000E-05  1.0000E-05  1.0000E-05  1.0000E-05  1.0000E-05  1.0000E-05  1.0000E-05  1.0000E-05   0.000    
   9    0.000      1.0000E-05  1.0000E-05  1.0000E-05  1.0000E-05  1.0000E-05  1.0000E-05  1.0000E-05  1.0000E-05   0.000    
  10    0.000      1.0000E-05  1.0000E-05  1.0000E-05  1.0000E-05  1.0000E-05  1.0000E-05  1.0000E-05  1.0000E-05  1.0000E-05
  11    0.000      1.0000E-05  1.0000E-05  1.0000E-05  1.0000E-05  1.0000E-05  1.0000E-05  1.0000E-05  1.0000E-05   0.000    
  12   1.0000E-05  1.0000E-05  1.0000E-05  1.0000E-05  1.0000E-05  1.0000E-05  1.0000E-05  1.0000E-05  1.0000E-05   0.000    
  13   1.0000E-05  1.0000E-05  1.0000E-05  1.0000E-05  1.0000E-05  1.0000E-05  1.0000E-05  1.0000E-05  1.0000E-05   0.000    
  14    0.000      1.0000E-05  1.0000E-05  1.0000E-05  1.0000E-05  1.0000E-05  1.0000E-05  1.0000E-05  1.0000E-05   0.000    
  15    0.000       0.000      1.0000E-05  1.0000E-05  1.0000E-05  1.0000E-05   0.000       0.000       0.000       0.000    

     BROOKS-COREY EPSILON =   5.50000    

  SATURATED WATER CONTENT =  0.220000    

   RESIDUAL WATER CONTENT =  5.000000E-02

    INITIAL WATER CONTENT =  5.000000E-02

UNSATURATED FLOW RESULTS WILL BE PRINTED TO SEPARATE FILES FOR SELECTED MODEL CELLS, AND TIME STEPS AS DEFINED BY OUTPUT CONTROL PACKAGE 

SELECTED MODEL CELLS ARE: 
 ROW NUMBER  COLUMN NUMBER  FORTRAN UNIT NUMBER  OUTPUT OPTION


       6             4                 65                 1
       6             5                 66                 2
       8             4                 67                 3
       0             0                 68                 4



   9 GAGING STATIONS WERE SPECIFIED.
     (Lakes are identified by a negative value of the Lake Number)
     RECORDS WILL BE WRITTEN TO SEPARATE OUTPUT FILES REPRESENTED BY FOLLOWING UNIT NUMBERS:

 Stream Gages:
  GAGE #   SEGMENT   REACH   UNIT   OUTTYPE
       1       1       4      83       1
       2       2       3      84       1
       3       3       5      85       1
       4       4       3      86       1
       5       5       4      87       4
       6       6       5      88       4
       7       7       3      89       4
       8       8       6      90       4
       9       9       1      91       5





 AWU -- AWU PACKAGE FOR NWT VERSION 1.1.3,  8/01/2017 INPUT READ FROM UNIT   57
 # AWU options

 PROCESSING AWU OPTIONS
 
 AGRICULTURAL DEMANDS WILL BE CALCULATED USING ET DEFICIT
 
 
 OPTION TO APPLY PUMPED WATER AS IRRIGATION IS ACTIVE. PUMPED IRRIGATION WATER WILL BE APPLIED TO          6 CELLS/RHUS.
 
 
 THE MAXIMUM NUMBER OF WELLS FOR SUPPLEMENTING DIVERSIONS OR APPLYING IRRIGATION IS          6 WELLS.
 
 
  UNFORMATTED CELL BY CELL RATES FOR SUP AND IRR WELLS WILL BE SAVED TO FILE UNIT NUMBER         -2
 
 
  UNFORMATTED CELL BY CELL RATES FOR SUP AND IRR WELLS WILL BE SAVED TO FILE UNIT NUMBER         -2
 
 
  GROUND WATER IRRIGATION, POTENTIAL AND ACTUAL ET WILL BE SAVED TO TIMES SERIES OUTPUT FILES.
 

 END PROCESSING AWU OPTIONS
 # AWU time series

 PROCESSING TIME SERIES

 FINISHED READING TIME SERIES
 A total number of          0 AWU output time series files were activated for SURFACE WATER 
 A total number of          1 AWU output time series files were activated for GROUNDWATER 
1
                            STRESS PERIOD NO.    1, LENGTH =   86400.00    
                            -----------------------------------------------

                              NUMBER OF TIME STEPS =     1

                               MULTIPLIER FOR DELT =     1.000

                            INITIAL TIME STEP SIZE =   86400.00    

 BOUND. NO. LAYER   ROW   COL     STAGE      CONDUCTANCE         
 ----------------------------------------------------------------
      1      1     13      1       988.0          0.3800E-01
      2      1     14      9       1045.          0.3800E-01

      2 GHB CELLS



 CLASSIFICATION & COUNT OF STREAM SEGMENTS BASED ON SOURCE OF INFLOW:

                HEADWATER     DIVERSION     RECEIVES TRIBUTARY FLOW
                ---------     ---------     -----------------------
                     3              2               4



                    INPUT DATA FOR EACH STREAM SEGMENT
 ---------------------------------------------------------------------------------------------

 SEGMENT    SEG.     INFLOW   OVERLAND   STREAM    STREAM   ICALC  OUTFLOW  DIVERSION PRIORITY
    NO.    LENGTH     RATE     RUNOFF      ET       PPT.    METH.  TO SEG.  FROM SEG.    NO.

      1  2.305E+04 2.500E+01 0.000E+00 0.000E+00 0.000E+00    4        2        0        0
      2  2.650E+04 0.000E+00 0.000E+00 0.000E+00 0.000E+00    1        6        0        0
      3  2.750E+04 2.000E+00 0.000E+00 0.000E+00 0.000E+00    0        5        1        0
      4  1.100E+04 1.000E+01 0.000E+00 0.000E+00 0.000E+00    1        5        0        0
      5  1.500E+04 0.000E+00 0.000E+00 0.000E+00 0.000E+00    3        6        0        0
      6  2.200E+04 0.000E+00 0.000E+00 0.000E+00 0.000E+00    1        8        0        0
      7  1.550E+04 1.500E+02 0.000E+00 0.000E+00 0.000E+00    2        8        0        0
      8  2.800E+04 0.000E+00 0.000E+00 0.000E+00 0.000E+00    2        0        0        0
      9  5.000E+01 0.000E+00 0.000E+00 0.000E+00 0.000E+00    1        0        2        0


         STREAMBED PROPERTIES AND STREAM DIMENSIONS

 SEGMENT     BED HYD. COND.      BED THICKNESS     ELEV.-TOP OF BED     WIDTH OF STREAM     DEPTH OF STREAM    STREAM ROUGHNESS
    No.     UPPER     LOWER     UPPER     LOWER     UPPER     LOWER     UPPER     LOWER     UPPER     LOWER   CHANNEL      BANK

     1  3.000E-05 3.000E-05 3.000E+00 3.000E+00 1.095E+03 1.075E+03
     2  3.000E-05 3.000E-05 3.000E+00 3.000E+00 1.075E+03 1.050E+03 1.200E+01 1.200E+01                     3.000E-02
     3  3.000E-05 3.000E-05 2.000E+00 2.000E+00 1.075E+03 1.060E+03 1.000E+01 6.000E+00 2.000E+00 1.000E+00
     4  3.000E-05 3.000E-05 3.000E+00 3.000E+00 1.080E+03 1.060E+03 1.000E+01 1.000E+01                     3.000E-02
     5  3.000E-05 3.000E-05 3.000E+00 3.000E+00 1.060E+03 1.045E+03
     6  3.000E-05 3.000E-05 3.000E+00 3.000E+00 1.045E+03 1.025E+03 1.200E+01 1.200E+01                     3.000E-02
     7  6.000E-05 6.000E-05 3.000E+00 3.000E+00 1.040E+03 1.025E+03                                         2.500E-02 4.500E-02
     8  6.000E-05 6.000E-05 3.000E+00 3.000E+00 1.025E+03 9.900E+02                                         2.500E-02 4.500E-02
     9  0.000E+00 0.000E+00 3.000E+00 3.000E+00 1.079E+03 1.078E+03 4.000E+00 4.000E+00                     3.000E-02

  EIGHT POINT CROSS-SECTION DATA FOR SEGMENTS WITH ICALC = 2
    X VALUES X VALUES START FROM LEFT SIDE LOOKING DOWNSTREAM

     SEGMENT NO.        X1        X2        X3        X4        X5        X6        X7        X8
            7      0.000E+00 1.000E+01 8.000E+01 1.000E+02 1.500E+02 1.700E+02 2.400E+02 2.500E+02
            8      0.000E+00 1.000E+01 8.000E+01 1.000E+02 1.500E+02 1.700E+02 2.400E+02 2.500E+02

    Z VALUES ARE RELATIVE TO STREAMBED ELEVATION

     SEGMENT NO.          Z1        Z2        Z3        Z4        Z5        Z6        Z7        Z8
            7      2.000E+01 1.300E+01 1.000E+01 2.000E+00 0.000E+00 1.000E+01 1.300E+01 2.000E+01
            8      2.500E+01 1.700E+01 1.300E+01 4.000E+00 0.000E+00 1.000E+01 1.600E+01 2.000E+01

 STREAMFLOW RELATION WITH DEPTH IS BASED ON EQUATION Q = CDPTH*(DEPTH)**FDPTH
 STREAMFLOW RELATION WITH WIDTH IS BASED ON EQUATION Q = AWDTH*(WIDTH)**BWDTH

 SEGMENT NO.      CDPTH     FDPTH    AWDTH     BWDTH

          5 3.000E-01 3.500E-01 3.800E+00 6.000E-01

 STREAMFLOW RELATION WITH DEPTH AND WIDTH IS BASED ON TABULATED VALUES

  SEGMENT NO.   STREAMFLOW       DEPTH       WIDTH

          1     5.0000E-01   2.5000E-01   3.0000E+00
          1     1.0000E+00   4.0000E-01   3.5000E+00
          1     2.0000E+00   5.5000E-01   4.2000E+00
          1     4.0000E+00   7.0000E-01   5.3000E+00
          1     7.0000E+00   8.0000E-01   7.0000E+00
          1     1.0000E+01   9.0000E-01   8.5000E+00
          1     2.0000E+01   1.1000E+00   1.2000E+01
          1     3.0000E+01   1.2500E+00   1.4000E+01
          1     5.0000E+01   1.4000E+00   1.7000E+01
          1     7.5000E+01   1.7000E+00   2.0000E+01
          1     1.0000E+02   1.8000E+00   2.2000E+01



TABULAR INFLOWS WERE READ FOR SEGMENT      1
FROM FILE UNIT NUMBER     55

          TIMES                    INFLOWS
             0.0000000000         5.0000000000
       2630000.0000000000        22.0000000000
       5260000.0000000000        42.0000000000
       7880000.0000000000        77.0000000000
      10500000.0000000000        28.0000000000
      13100000.0000000000        99.0000000000
      15800000.0000000000        63.0000000000
      18400000.0000000000        35.0000000000
      21000000.0000000000        21.0000000000
      23700000.0000000000         7.0000000000
      26300000.0000000000         3.5000000000
      28900000.0000000000         3.2999999523
      31500000.0000000000         3.0999999046
      34200000.0000000000        10.5000000000
      36800000.0000000000        21.0000000000
      39400000.0000000000        98.0000000000
      42000000.0000000000        35.0000000000
      44700000.0000000000        63.0000000000
      47300000.0000000000        28.0000000000
      49900000.0000000000        14.0000000000
      52600000.0000000000         7.0000000000
      55200000.0000000000         3.5000000000
      57800000.0000000000         3.2000000477
      60400000.0000000000         3.5000000000
      63100000.0000000000         3.5000000000
      65700000.0000000000        14.0000000000
TABULAR INFLOWS WERE READ FOR SEGMENT      9
FROM FILE UNIT NUMBER     56

          TIMES                    INFLOWS
             0.0000000000         0.0000000000
         86400.0000000000         0.0000000000
        173000.0000000000         0.0000000000
        259000.0000000000         0.0000000000
        346000.0000000000         0.0000000000
        432000.0000000000         0.0000000000
        518000.0000000000         0.0000000000
        605000.0000000000         0.0000000000
        691000.0000000000         0.0000000000
        778000.0000000000         0.0000000000
        864000.0000000000         0.0000000000
        950000.0000000000         0.0000000000
       1040000.0000000000         0.0000000000
       1120000.0000000000         0.0000000000
       1210000.0000000000         0.0000000000
       1300000.0000000000         0.0000000000
       1380000.0000000000         0.0000000000
       1470000.0000000000         0.0000000000
       1560000.0000000000         0.0000000000
       1640000.0000000000         0.0000000000
       1730000.0000000000         0.0000000000
       1810000.0000000000         0.0000000000
       1900000.0000000000         0.0000000000
       1990000.0000000000         0.0000000000
       2070000.0000000000         0.0000000000
       2160000.0000000000         0.0000000000
       2250000.0000000000         0.0000000000
       2330000.0000000000         0.0000000000
       2420000.0000000000         0.0000000000
       2510000.0000000000         0.0000000000
       2590000.0000000000         0.0000000000
       2680000.0000000000         0.0000000000
       2760000.0000000000         0.0000000000
       2850000.0000000000         0.0000000000
       2940000.0000000000         0.0000000000
       3020000.0000000000         0.0000000000
       3110000.0000000000         0.0000000000
       3200000.0000000000         0.0000000000
       3280000.0000000000         0.0000000000
       3370000.0000000000         0.0000000000
       3460000.0000000000         0.0000000000
       3540000.0000000000         0.0000000000
       3630000.0000000000         0.0000000000
       3720000.0000000000         0.0000000000
       3800000.0000000000         0.0000000000
       3890000.0000000000         0.0000000000
       3970000.0000000000         0.0000000000
       4060000.0000000000         0.0000000000
       4150000.0000000000         0.0000000000
       4230000.0000000000         0.0000000000
       4320000.0000000000         0.0000000000
       4410000.0000000000         0.0000000000
       4490000.0000000000         0.0000000000
       4580000.0000000000         0.0000000000
       4670000.0000000000         0.0000000000
       4750000.0000000000         0.0000000000
       4840000.0000000000         0.0000000000
       4920000.0000000000         0.0000000000
       5010000.0000000000         0.0000000000
       5100000.0000000000         0.0000000000
       5180000.0000000000         0.0000000000
       5270000.0000000000         0.0000000000
       5360000.0000000000         0.0000000000
       5440000.0000000000         0.0000000000
       5530000.0000000000         0.0000000000
       5620000.0000000000         0.0000000000
       5700000.0000000000         0.0000000000
       5790000.0000000000         0.0000000000
       5880000.0000000000         0.0000000000
       5960000.0000000000         0.0000000000
       6050000.0000000000         0.0000000000
       6130000.0000000000         0.0000000000
       6220000.0000000000         0.0000000000
       6310000.0000000000         0.0000000000
       6390000.0000000000         0.0000000000
       6480000.0000000000         0.0000000000
       6570000.0000000000         0.0000000000
       6650000.0000000000         0.0000000000
       6740000.0000000000         0.0000000000
       6830000.0000000000         0.0000000000
       6910000.0000000000         0.0000000000
       7000000.0000000000         0.0000000000
       7080000.0000000000         0.0000000000
       7170000.0000000000         0.0000000000
       7260000.0000000000         0.0000000000
       7340000.0000000000         0.0000000000
       7430000.0000000000         0.0000000000
       7520000.0000000000         0.0000000000
       7600000.0000000000         0.0000000000
       7690000.0000000000         0.0000000000
       7780000.0000000000         0.0000000000
       7860000.0000000000        20.0000000000
       7950000.0000000000        20.0000000000
       8040000.0000000000        20.0000000000
       8120000.0000000000        20.0000000000
       8210000.0000000000        20.0000000000
       8290000.0000000000        20.0000000000
       8380000.0000000000        20.0000000000
       8470000.0000000000         0.0000000000
       8550000.0000000000         0.0000000000
       8640000.0000000000         0.0000000000
       8730000.0000000000         0.0000000000
       8810000.0000000000         0.0000000000
       8900000.0000000000         0.0000000000
       8990000.0000000000         0.0000000000
       9070000.0000000000        20.0000000000
       9160000.0000000000        20.0000000000
       9240000.0000000000        20.0000000000
       9330000.0000000000        20.0000000000
       9420000.0000000000        20.0000000000
       9500000.0000000000        20.0000000000
       9590000.0000000000        20.0000000000
       9680000.0000000000         0.0000000000
       9760000.0000000000         0.0000000000
       9850000.0000000000         0.0000000000
       9940000.0000000000         0.0000000000
      10000000.0000000000         0.0000000000
      10100000.0000000000         0.0000000000
      10200000.0000000000         0.0000000000
      10300000.0000000000         0.0000000000
      10400000.0000000000         0.0000000000
      10500000.0000000000        20.0000000000
      10500000.0000000000        20.0000000000
      10600000.0000000000        20.0000000000
      10700000.0000000000        20.0000000000
      10800000.0000000000        20.0000000000
      10900000.0000000000        20.0000000000
      11000000.0000000000        20.0000000000
      11100000.0000000000         0.0000000000
      11100000.0000000000         0.0000000000
      11200000.0000000000         0.0000000000
      11300000.0000000000         0.0000000000
      11400000.0000000000         0.0000000000
      11500000.0000000000         0.0000000000
      11600000.0000000000         0.0000000000
      11700000.0000000000        20.0000000000
      11800000.0000000000        20.0000000000
      11800000.0000000000        20.0000000000
      11900000.0000000000        20.0000000000
      12000000.0000000000        20.0000000000
      12100000.0000000000        20.0000000000
      12200000.0000000000        20.0000000000
      12300000.0000000000         0.0000000000
      12400000.0000000000         0.0000000000
      12400000.0000000000         0.0000000000
      12500000.0000000000         0.0000000000
      12600000.0000000000         0.0000000000
      12700000.0000000000         0.0000000000
      12800000.0000000000         0.0000000000
      12900000.0000000000        20.0000000000
      13000000.0000000000        20.0000000000
      13000000.0000000000        20.0000000000
      13100000.0000000000        20.0000000000
      13200000.0000000000        20.0000000000
      13300000.0000000000        20.0000000000
      13400000.0000000000        20.0000000000
      13500000.0000000000         0.0000000000
      13600000.0000000000         0.0000000000
      13700000.0000000000         0.0000000000
      13700000.0000000000         0.0000000000
      13800000.0000000000         0.0000000000
      13900000.0000000000         0.0000000000
      14000000.0000000000         0.0000000000
      14100000.0000000000        20.0000000000
      14200000.0000000000        20.0000000000
      14300000.0000000000        20.0000000000
      14300000.0000000000        20.0000000000
      14400000.0000000000        20.0000000000
      14500000.0000000000        20.0000000000
      14600000.0000000000        20.0000000000
      14700000.0000000000         0.0000000000
      14800000.0000000000         0.0000000000
      14900000.0000000000         0.0000000000
      14900000.0000000000         0.0000000000
      15000000.0000000000         0.0000000000
      15100000.0000000000         0.0000000000
      15200000.0000000000         0.0000000000
      15300000.0000000000        20.0000000000
      15400000.0000000000        20.0000000000
      15500000.0000000000        20.0000000000
      15600000.0000000000        20.0000000000
      15600000.0000000000        20.0000000000
      15700000.0000000000        20.0000000000
      15800000.0000000000        20.0000000000
      15900000.0000000000         0.0000000000
      16000000.0000000000         0.0000000000
      16100000.0000000000         0.0000000000
      16200000.0000000000         0.0000000000
      16200000.0000000000         0.0000000000
      16300000.0000000000         0.0000000000
      16400000.0000000000         0.0000000000
      16500000.0000000000        20.0000000000
      16600000.0000000000        20.0000000000
      16700000.0000000000        20.0000000000
      16800000.0000000000        20.0000000000
      16800000.0000000000        20.0000000000
      16900000.0000000000        20.0000000000
      17000000.0000000000        20.0000000000
      17100000.0000000000         0.0000000000
      17200000.0000000000         0.0000000000
      17300000.0000000000         0.0000000000
      17400000.0000000000         0.0000000000
      17500000.0000000000         0.0000000000
      17500000.0000000000         0.0000000000
      17600000.0000000000         0.0000000000
      17700000.0000000000        20.0000000000
      17800000.0000000000        20.0000000000
      17900000.0000000000        20.0000000000
      18000000.0000000000        20.0000000000
      18100000.0000000000        20.0000000000
      18100000.0000000000        20.0000000000
      18200000.0000000000        20.0000000000
      18300000.0000000000         0.0000000000
      18400000.0000000000         0.0000000000
      18500000.0000000000         0.0000000000
      18600000.0000000000         0.0000000000
      18700000.0000000000         0.0000000000
      18700000.0000000000         0.0000000000
      18800000.0000000000         0.0000000000
      18900000.0000000000        20.0000000000
      19000000.0000000000        20.0000000000
      19100000.0000000000        20.0000000000
      19200000.0000000000        20.0000000000
      19300000.0000000000        20.0000000000
      19400000.0000000000        20.0000000000
      19400000.0000000000        20.0000000000
      19500000.0000000000         0.0000000000
      19600000.0000000000         0.0000000000
      19700000.0000000000         0.0000000000
      19800000.0000000000         0.0000000000
      19900000.0000000000         0.0000000000
      20000000.0000000000         0.0000000000
      20000000.0000000000         0.0000000000
      20100000.0000000000        20.0000000000
      20200000.0000000000        20.0000000000
      20300000.0000000000        20.0000000000
      20400000.0000000000        20.0000000000
      20500000.0000000000        20.0000000000
      20600000.0000000000        20.0000000000
      20600000.0000000000        20.0000000000
      20700000.0000000000         0.0000000000
      20800000.0000000000         0.0000000000
      20900000.0000000000         0.0000000000
      21000000.0000000000         0.0000000000
      21100000.0000000000         0.0000000000
      21200000.0000000000         0.0000000000
      21300000.0000000000         0.0000000000
      21300000.0000000000        20.0000000000
      21400000.0000000000        20.0000000000
      21500000.0000000000        20.0000000000
      21600000.0000000000        20.0000000000
      21700000.0000000000        20.0000000000
      21800000.0000000000        20.0000000000
      21900000.0000000000        20.0000000000
      21900000.0000000000         0.0000000000
      22000000.0000000000         0.0000000000
      22100000.0000000000         0.0000000000
      22200000.0000000000         0.0000000000
      22300000.0000000000         0.0000000000
      22400000.0000000000         0.0000000000
      22500000.0000000000         0.0000000000
      22600000.0000000000        20.0000000000
      22600000.0000000000        20.0000000000
      22700000.0000000000        20.0000000000
      22800000.0000000000        20.0000000000
      22900000.0000000000        20.0000000000
      23000000.0000000000        20.0000000000
      23100000.0000000000        20.0000000000
      23200000.0000000000         0.0000000000
      23200000.0000000000         0.0000000000
      23300000.0000000000         0.0000000000
      23400000.0000000000         0.0000000000
      23500000.0000000000         0.0000000000
      23600000.0000000000         0.0000000000
      23700000.0000000000         0.0000000000
      23800000.0000000000         0.0000000000
      23800000.0000000000         0.0000000000
      23900000.0000000000         0.0000000000
      24000000.0000000000         0.0000000000
      24100000.0000000000         0.0000000000
      24200000.0000000000         0.0000000000
      24300000.0000000000         0.0000000000
      24400000.0000000000         0.0000000000
      24500000.0000000000         0.0000000000
      24500000.0000000000         0.0000000000
      24600000.0000000000         0.0000000000
      24700000.0000000000         0.0000000000
      24800000.0000000000         0.0000000000
      24900000.0000000000         0.0000000000
      25000000.0000000000         0.0000000000
      25100000.0000000000         0.0000000000
      25100000.0000000000         0.0000000000
      25200000.0000000000         0.0000000000
      25300000.0000000000         0.0000000000
      25400000.0000000000         0.0000000000
      25500000.0000000000         0.0000000000
      25600000.0000000000         0.0000000000
      25700000.0000000000         0.0000000000
      25700000.0000000000         0.0000000000
      25800000.0000000000         0.0000000000
      25900000.0000000000         0.0000000000
      26000000.0000000000         0.0000000000
      26100000.0000000000         0.0000000000
      26200000.0000000000         0.0000000000
      26300000.0000000000         0.0000000000
      26400000.0000000000         0.0000000000
      26400000.0000000000         0.0000000000
      26500000.0000000000         0.0000000000
      26600000.0000000000         0.0000000000
      26700000.0000000000         0.0000000000
      26800000.0000000000         0.0000000000
      26900000.0000000000         0.0000000000
      27000000.0000000000         0.0000000000
      27000000.0000000000         0.0000000000
      27100000.0000000000         0.0000000000
      27200000.0000000000         0.0000000000
      27300000.0000000000         0.0000000000
      27400000.0000000000         0.0000000000
      27500000.0000000000         0.0000000000
      27600000.0000000000         0.0000000000
      27600000.0000000000         0.0000000000
      27700000.0000000000         0.0000000000
      27800000.0000000000         0.0000000000
      27900000.0000000000         0.0000000000
      28000000.0000000000         0.0000000000
      28100000.0000000000         0.0000000000
      28200000.0000000000         0.0000000000
      28300000.0000000000         0.0000000000
      28300000.0000000000         0.0000000000
      28400000.0000000000         0.0000000000
      28500000.0000000000         0.0000000000
      28600000.0000000000         0.0000000000
      28700000.0000000000         0.0000000000
      28800000.0000000000         0.0000000000
      28900000.0000000000         0.0000000000
      28900000.0000000000         0.0000000000
      29000000.0000000000         0.0000000000
      29100000.0000000000         0.0000000000
      29200000.0000000000         0.0000000000
      29300000.0000000000         0.0000000000
      29400000.0000000000         0.0000000000
      29500000.0000000000         0.0000000000
      29500000.0000000000         0.0000000000
      29600000.0000000000         0.0000000000
      29700000.0000000000         0.0000000000
      29800000.0000000000         0.0000000000
      29900000.0000000000         0.0000000000
      30000000.0000000000         0.0000000000
      30100000.0000000000         0.0000000000
      30200000.0000000000         0.0000000000
      30200000.0000000000         0.0000000000
      30300000.0000000000         0.0000000000
      30400000.0000000000         0.0000000000
      30500000.0000000000         0.0000000000
      30600000.0000000000         0.0000000000
      30700000.0000000000         0.0000000000
      30800000.0000000000         0.0000000000
      30800000.0000000000         0.0000000000
      30900000.0000000000         0.0000000000
      31000000.0000000000         0.0000000000
      31100000.0000000000         0.0000000000
      31200000.0000000000         0.0000000000
      31300000.0000000000         0.0000000000
      31400000.0000000000         0.0000000000
      31400000.0000000000         0.0000000000
      31500000.0000000000         0.0000000000
      31600000.0000000000         0.0000000000
      31700000.0000000000         0.0000000000
      31800000.0000000000         0.0000000000
      31900000.0000000000         0.0000000000
      32000000.0000000000         0.0000000000
      32100000.0000000000         0.0000000000
      32100000.0000000000         0.0000000000
      32200000.0000000000         0.0000000000
      32300000.0000000000         0.0000000000
      32400000.0000000000         0.0000000000
      32500000.0000000000         0.0000000000
      32600000.0000000000         0.0000000000
      32700000.0000000000         0.0000000000
      32700000.0000000000         0.0000000000
      32800000.0000000000         0.0000000000
      32900000.0000000000         0.0000000000
      33000000.0000000000         0.0000000000
      33100000.0000000000         0.0000000000
      33200000.0000000000         0.0000000000
      33300000.0000000000         0.0000000000
      33400000.0000000000         0.0000000000
      33400000.0000000000         0.0000000000
      33500000.0000000000         0.0000000000
      33600000.0000000000         0.0000000000
      33700000.0000000000         0.0000000000
      33800000.0000000000         0.0000000000
      33900000.0000000000         0.0000000000
      34000000.0000000000         0.0000000000
      34000000.0000000000         0.0000000000
      34100000.0000000000         0.0000000000
      34200000.0000000000         0.0000000000
      34300000.0000000000         0.0000000000
      34400000.0000000000         0.0000000000
      34500000.0000000000         0.0000000000
      34600000.0000000000         0.0000000000
      34600000.0000000000         0.0000000000
      34700000.0000000000         0.0000000000
      34800000.0000000000         0.0000000000
      34900000.0000000000         0.0000000000
      35000000.0000000000         0.0000000000
      35100000.0000000000         0.0000000000
      35200000.0000000000         0.0000000000
      35300000.0000000000         0.0000000000
      35300000.0000000000         0.0000000000
      35400000.0000000000         0.0000000000
      35500000.0000000000         0.0000000000
      35600000.0000000000         0.0000000000
      35700000.0000000000         0.0000000000
      35800000.0000000000         0.0000000000
      35900000.0000000000         0.0000000000
      35900000.0000000000         0.0000000000
      36000000.0000000000         0.0000000000
      36100000.0000000000         0.0000000000
      36200000.0000000000         0.0000000000
      36300000.0000000000         0.0000000000
      36400000.0000000000         0.0000000000
      36500000.0000000000         0.0000000000
      36500000.0000000000         0.0000000000
      36600000.0000000000         0.0000000000
      36700000.0000000000         0.0000000000
      36800000.0000000000         0.0000000000
      36900000.0000000000         0.0000000000
      37000000.0000000000         0.0000000000
      37100000.0000000000         0.0000000000
      37200000.0000000000         0.0000000000
      37200000.0000000000         0.0000000000
      37300000.0000000000         0.0000000000
      37400000.0000000000         0.0000000000
      37500000.0000000000         0.0000000000
      37600000.0000000000         0.0000000000
      37700000.0000000000         0.0000000000
      37800000.0000000000         0.0000000000
      37800000.0000000000         0.0000000000
      37900000.0000000000         0.0000000000
      38000000.0000000000         0.0000000000
      38100000.0000000000         0.0000000000
      38200000.0000000000         0.0000000000
      38300000.0000000000         0.0000000000
      38400000.0000000000         0.0000000000
      38400000.0000000000         0.0000000000
      38500000.0000000000         0.0000000000
      38600000.0000000000         0.0000000000
      38700000.0000000000         0.0000000000
      38800000.0000000000         0.0000000000
      38900000.0000000000         0.0000000000
      39000000.0000000000        20.0000000000
      39100000.0000000000        20.0000000000
      39100000.0000000000        20.0000000000
      39200000.0000000000        20.0000000000
      39300000.0000000000        20.0000000000
      39400000.0000000000        20.0000000000
      39500000.0000000000        20.0000000000
      39600000.0000000000         0.0000000000
      39700000.0000000000         0.0000000000
      39700000.0000000000         0.0000000000
      39800000.0000000000         0.0000000000
      39900000.0000000000         0.0000000000
      40000000.0000000000         0.0000000000
      40100000.0000000000         0.0000000000
      40200000.0000000000        20.0000000000
      40300000.0000000000        20.0000000000
      40300000.0000000000        20.0000000000
      40400000.0000000000        20.0000000000
      40500000.0000000000        20.0000000000
      40600000.0000000000        20.0000000000
      40700000.0000000000        20.0000000000
      40800000.0000000000         0.0000000000
      40900000.0000000000         0.0000000000
      41000000.0000000000         0.0000000000
      41000000.0000000000         0.0000000000
      41100000.0000000000         0.0000000000
      41200000.0000000000         0.0000000000
      41300000.0000000000         0.0000000000
      41400000.0000000000         0.0000000000
      41500000.0000000000         0.0000000000
      41600000.0000000000        20.0000000000
      41600000.0000000000        20.0000000000
      41700000.0000000000        20.0000000000
      41800000.0000000000        20.0000000000
      41900000.0000000000        20.0000000000
      42000000.0000000000        20.0000000000
      42100000.0000000000        20.0000000000
      42200000.0000000000         0.0000000000
      42200000.0000000000         0.0000000000
      42300000.0000000000         0.0000000000
      42400000.0000000000         0.0000000000
      42500000.0000000000         0.0000000000
      42600000.0000000000         0.0000000000
      42700000.0000000000         0.0000000000
      42800000.0000000000        20.0000000000
      42900000.0000000000        20.0000000000
      42900000.0000000000        20.0000000000
      43000000.0000000000        20.0000000000
      43100000.0000000000        20.0000000000
      43200000.0000000000        20.0000000000
      43300000.0000000000        20.0000000000
      43400000.0000000000         0.0000000000
      43500000.0000000000         0.0000000000
      43500000.0000000000         0.0000000000
      43600000.0000000000         0.0000000000
      43700000.0000000000         0.0000000000
      43800000.0000000000         0.0000000000
      43900000.0000000000         0.0000000000
      44000000.0000000000        20.0000000000
      44100000.0000000000        20.0000000000
      44200000.0000000000        20.0000000000
      44200000.0000000000        20.0000000000
      44300000.0000000000        20.0000000000
      44400000.0000000000        20.0000000000
      44500000.0000000000        20.0000000000
      44600000.0000000000         0.0000000000
      44700000.0000000000         0.0000000000
      44800000.0000000000         0.0000000000
      44800000.0000000000         0.0000000000
      44900000.0000000000         0.0000000000
      45000000.0000000000         0.0000000000
      45100000.0000000000         0.0000000000
      45200000.0000000000        20.0000000000
      45300000.0000000000        20.0000000000
      45400000.0000000000        20.0000000000
      45400000.0000000000        20.0000000000
      45500000.0000000000        20.0000000000
      45600000.0000000000        20.0000000000
      45700000.0000000000        20.0000000000
      45800000.0000000000         0.0000000000
      45900000.0000000000         0.0000000000
      46000000.0000000000         0.0000000000
      46100000.0000000000         0.0000000000
      46100000.0000000000         0.0000000000
      46200000.0000000000         0.0000000000
      46300000.0000000000         0.0000000000
      46400000.0000000000        20.0000000000
      46500000.0000000000        20.0000000000
      46600000.0000000000        20.0000000000
      46700000.0000000000        20.0000000000
      46700000.0000000000        20.0000000000
      46800000.0000000000        20.0000000000
      46900000.0000000000        20.0000000000
      47000000.0000000000         0.0000000000
      47100000.0000000000         0.0000000000
      47200000.0000000000         0.0000000000
      47300000.0000000000         0.0000000000
      47300000.0000000000         0.0000000000
      47400000.0000000000         0.0000000000
      47500000.0000000000         0.0000000000
      47600000.0000000000        20.0000000000
      47700000.0000000000        20.0000000000
      47800000.0000000000        20.0000000000
      47900000.0000000000        20.0000000000
      48000000.0000000000        20.0000000000
      48000000.0000000000        20.0000000000
      48100000.0000000000        20.0000000000
      48200000.0000000000         0.0000000000
      48300000.0000000000         0.0000000000
      48400000.0000000000         0.0000000000
      48500000.0000000000         0.0000000000
      48600000.0000000000         0.0000000000
      48600000.0000000000         0.0000000000
      48700000.0000000000         0.0000000000
      48800000.0000000000        20.0000000000
      48900000.0000000000        20.0000000000
      49000000.0000000000        20.0000000000
      49100000.0000000000        20.0000000000
      49200000.0000000000        20.0000000000
      49200000.0000000000        20.0000000000
      49300000.0000000000        20.0000000000
      49400000.0000000000         0.0000000000
      49500000.0000000000         0.0000000000
      49600000.0000000000         0.0000000000
      49700000.0000000000         0.0000000000
      49800000.0000000000         0.0000000000
      49900000.0000000000         0.0000000000
      49900000.0000000000         0.0000000000
      50000000.0000000000        20.0000000000
      50100000.0000000000        20.0000000000
      50200000.0000000000        20.0000000000
      50300000.0000000000        20.0000000000
      50400000.0000000000        20.0000000000
      50500000.0000000000        20.0000000000
      50500000.0000000000        20.0000000000
      50600000.0000000000         0.0000000000
      50700000.0000000000         0.0000000000
      50800000.0000000000         0.0000000000
      50900000.0000000000         0.0000000000
      51000000.0000000000         0.0000000000
      51100000.0000000000         0.0000000000
      51100000.0000000000         0.0000000000
      51200000.0000000000        20.0000000000
      51300000.0000000000        20.0000000000
      51400000.0000000000        20.0000000000
      51500000.0000000000        20.0000000000
      51600000.0000000000        20.0000000000
      51700000.0000000000        20.0000000000
      51800000.0000000000        20.0000000000
      51800000.0000000000         0.0000000000
      51900000.0000000000         0.0000000000
      52000000.0000000000         0.0000000000
      52100000.0000000000         0.0000000000
      52200000.0000000000         0.0000000000
      52300000.0000000000         0.0000000000
      52400000.0000000000         0.0000000000
      52400000.0000000000        20.0000000000
      52500000.0000000000        20.0000000000
      52600000.0000000000        20.0000000000
      52700000.0000000000        20.0000000000
      52800000.0000000000        20.0000000000
      52900000.0000000000        20.0000000000
      53000000.0000000000        20.0000000000
      53000000.0000000000         0.0000000000
      53100000.0000000000         0.0000000000
      53200000.0000000000         0.0000000000
      53300000.0000000000         0.0000000000
      53400000.0000000000         0.0000000000
      53500000.0000000000         0.0000000000
      53600000.0000000000         0.0000000000
      53700000.0000000000        20.0000000000
      53700000.0000000000        20.0000000000
      53800000.0000000000        20.0000000000
      53900000.0000000000        20.0000000000
      54000000.0000000000        20.0000000000
      54100000.0000000000        20.0000000000
      54200000.0000000000        20.0000000000
      54300000.0000000000         0.0000000000
      54300000.0000000000         0.0000000000
      54400000.0000000000         0.0000000000
      54500000.0000000000         0.0000000000
      54600000.0000000000         0.0000000000
      54700000.0000000000         0.0000000000
      54800000.0000000000         0.0000000000
      54900000.0000000000         0.0000000000
      55000000.0000000000         0.0000000000
      55000000.0000000000         0.0000000000
      55100000.0000000000         0.0000000000
      55200000.0000000000         0.0000000000
      55300000.0000000000         0.0000000000
      55400000.0000000000         0.0000000000
      55500000.0000000000         0.0000000000
      55600000.0000000000         0.0000000000
      55600000.0000000000         0.0000000000
      55700000.0000000000         0.0000000000
      55800000.0000000000         0.0000000000
      55900000.0000000000         0.0000000000
      56000000.0000000000         0.0000000000
      56100000.0000000000         0.0000000000
      56200000.0000000000         0.0000000000
      56200000.0000000000         0.0000000000
      56300000.0000000000         0.0000000000
      56400000.0000000000         0.0000000000
      56500000.0000000000         0.0000000000
      56600000.0000000000         0.0000000000
      56700000.0000000000         0.0000000000
      56800000.0000000000         0.0000000000
      56900000.0000000000         0.0000000000
      56900000.0000000000         0.0000000000
      57000000.0000000000         0.0000000000
      57100000.0000000000         0.0000000000
      57200000.0000000000         0.0000000000
      57300000.0000000000         0.0000000000
      57400000.0000000000         0.0000000000
      57500000.0000000000         0.0000000000
      57500000.0000000000         0.0000000000
      57600000.0000000000         0.0000000000
      57700000.0000000000         0.0000000000
      57800000.0000000000         0.0000000000
      57900000.0000000000         0.0000000000
      58000000.0000000000         0.0000000000
      58100000.0000000000         0.0000000000
      58100000.0000000000         0.0000000000
      58200000.0000000000         0.0000000000
      58300000.0000000000         0.0000000000
      58400000.0000000000         0.0000000000
      58500000.0000000000         0.0000000000
      58600000.0000000000         0.0000000000
      58700000.0000000000         0.0000000000
      58800000.0000000000         0.0000000000
      58800000.0000000000         0.0000000000
      58900000.0000000000         0.0000000000
      59000000.0000000000         0.0000000000
      59100000.0000000000         0.0000000000
      59200000.0000000000         0.0000000000
      59300000.0000000000         0.0000000000
      59400000.0000000000         0.0000000000
      59400000.0000000000         0.0000000000
      59500000.0000000000         0.0000000000
      59600000.0000000000         0.0000000000
      59700000.0000000000         0.0000000000
      59800000.0000000000         0.0000000000
      59900000.0000000000         0.0000000000
      60000000.0000000000         0.0000000000
      60000000.0000000000         0.0000000000
      60100000.0000000000         0.0000000000
      60200000.0000000000         0.0000000000
      60300000.0000000000         0.0000000000
      60400000.0000000000         0.0000000000
      60500000.0000000000         0.0000000000
      60600000.0000000000         0.0000000000
      60700000.0000000000         0.0000000000
      60700000.0000000000         0.0000000000
      60800000.0000000000         0.0000000000
      60900000.0000000000         0.0000000000
      61000000.0000000000         0.0000000000
      61100000.0000000000         0.0000000000
      61200000.0000000000         0.0000000000
      61300000.0000000000         0.0000000000
      61300000.0000000000         0.0000000000
      61400000.0000000000         0.0000000000
      61500000.0000000000         0.0000000000
      61600000.0000000000         0.0000000000
      61700000.0000000000         0.0000000000
      61800000.0000000000         0.0000000000
      61900000.0000000000         0.0000000000
      61900000.0000000000         0.0000000000
      62000000.0000000000         0.0000000000
      62100000.0000000000         0.0000000000
      62200000.0000000000         0.0000000000
      62300000.0000000000         0.0000000000
      62400000.0000000000         0.0000000000
      62500000.0000000000         0.0000000000
      62600000.0000000000         0.0000000000
      62600000.0000000000         0.0000000000
      62700000.0000000000         0.0000000000
      62800000.0000000000         0.0000000000
      62900000.0000000000         0.0000000000
      63000000.0000000000         0.0000000000
      63100000.0000000000         0.0000000000
      63200000.0000000000         0.0000000000
      63200000.0000000000         0.0000000000
      63300000.0000000000         0.0000000000
      63400000.0000000000         0.0000000000
      63500000.0000000000         0.0000000000
      63600000.0000000000         0.0000000000
      63700000.0000000000         0.0000000000
      63800000.0000000000         0.0000000000
      63800000.0000000000         0.0000000000
      63900000.0000000000         0.0000000000
      64000000.0000000000         0.0000000000
      64100000.0000000000         0.0000000000
      64200000.0000000000         0.0000000000
      64300000.0000000000         0.0000000000
      64400000.0000000000         0.0000000000
      64500000.0000000000         0.0000000000
      64500000.0000000000         0.0000000000
      64600000.0000000000         0.0000000000
      64700000.0000000000         0.0000000000
      64800000.0000000000         0.0000000000
      64900000.0000000000         0.0000000000
      65000000.0000000000         0.0000000000
      65100000.0000000000         0.0000000000
      65100000.0000000000         0.0000000000
      65200000.0000000000         0.0000000000
      65300000.0000000000         0.0000000000
      65400000.0000000000         0.0000000000
      65500000.0000000000         0.0000000000



            AREAL INFILTRATION RATE
 READING ON UNIT   19 WITH FORMAT: (10F4.0)            

            1           2           3           4           5           6           7           8           9          10
 ........................................................................................................................
   1   1.0000E-10  2.0000E-10   0.000       0.000       0.000       0.000       0.000       0.000       0.000       0.000    
   2   2.0000E-10  1.0000E-10  2.0000E-10   0.000       0.000      8.0000E-10  8.0000E-10  5.0000E-10   0.000       0.000    
   3    0.000      5.0000E-10  1.0000E-10  1.0000E-10  8.0000E-10  8.0000E-10  5.0000E-10  5.0000E-10   0.000       0.000    
   4   8.0000E-10  5.0000E-10  1.0000E-10  1.0000E-10  1.0000E-10  1.0000E-10  1.0000E-10  1.0000E-10  2.0000E-10   0.000    
   5   8.0000E-10  5.0000E-10  1.0000E-10  1.0000E-10  1.0000E-10  1.0000E-10  1.0000E-10  1.0000E-10  1.0000E-10  1.0000E-10
   6   8.0000E-10  5.0000E-10  5.0000E-10  2.0000E-10  2.0000E-10  1.0000E-10  1.0000E-10  1.0000E-10  1.0000E-10  5.0000E-10
   7   8.0000E-10  5.0000E-10  5.0000E-10  2.0000E-10  2.0000E-10  1.0000E-10  1.0000E-10  2.0000E-10  2.0000E-10   0.000    
   8    0.000      5.0000E-10  5.0000E-10  2.0000E-10  2.0000E-10  1.0000E-10  1.0000E-10  2.0000E-10  5.0000E-10   0.000    
   9    0.000      5.0000E-10  5.0000E-10  2.0000E-10  2.0000E-10  1.0000E-10  1.0000E-10  2.0000E-10  5.0000E-10   0.000    
  10    0.000      5.0000E-10  5.0000E-10  2.0000E-10  2.0000E-10  1.0000E-10  1.0000E-10  2.0000E-10  5.0000E-10  8.0000E-10
  11    0.000      1.0000E-10  1.0000E-10  1.0000E-10  1.0000E-10  1.0000E-10  1.0000E-10  2.0000E-10  5.0000E-10   0.000    
  12   1.0000E-10  1.0000E-10  1.0000E-10  1.0000E-10  1.0000E-10  1.0000E-10  1.0000E-10  1.0000E-10  2.0000E-10   0.000    
  13   1.0000E-10  1.0000E-10  2.0000E-10  2.0000E-10  2.0000E-10  2.0000E-10  2.0000E-10  1.0000E-10  1.0000E-10   0.000    
  14    0.000      2.0000E-10  5.0000E-10  5.0000E-10  5.0000E-10  5.0000E-10  5.0000E-10  2.0000E-10  1.0000E-10   0.000    
  15    0.000       0.000      8.0000E-10  8.0000E-10  8.0000E-10  8.0000E-10   0.000       0.000       0.000       0.000    

                  ET RATE =  1.000000E-08

      ET EXTINCTION DEPTH =   5.00000    

 EXTINCTION WATER CONTENT =  7.000000E-02
 # AWU well list

 PROCESSING WELL LIST

 LAYER   ROW   COL   MAX STRESS RATE         
 --------------------------------------------
      1      1      6      4      -20.00    
      2      1      6      5      -20.00    
      3      1      7      4      -20.00    
      4      1      7      5      -20.00    
      5      1      8      4      -20.00    
      6      1      8      5      -20.00    

 FINISHED READING WELL LIST

      6 WELLS

 PROCESSING AWU STRESS PERIOD DATA
 # AWU stress period

 READING AWU STRESS PERIOD DATA

 READING IRRIGATION WELL

 END PROCESSING AWU STRESS PERIOD DATA OPTIONS
 
 SOLVING FOR HEAD 
                                                   Max.-Head-Change                         Max.-Flux-Residual
  Residual-Control   Outer-Iter.   Inner-Iter.     Column Row Layer    Maximum-Head-Change  Column Row Layer    Maximum-Flux-Residual          L2-NORM 
          0                 1           4             2    2     1      -0.2647761239E+02       3    3    1        -0.3343288571E+01      0.9154319941E+01
          0                 2           4             1    1     1      -0.3274892448E+02       1   13    1        -0.1711836472E+02      0.1781690702E+02
          0                 3           4             6   13     1      -0.1425427901E+01       6   13    1        -0.2360377966E+01      0.2832991012E+01
          0                 4           4             5   13     1      -0.2514218174E+00       5   13    1        -0.5111038107E+00      0.5606516185E+00
          0                 5           3             5   14     1       0.5215882027E-01       5   13    1         0.3677304216E-01      0.4570874088E-01
          0                 6           3             5   14     1      -0.4091680186E-02       5   13    1        -0.2929088553E-02      0.4048129755E-02
          0                 7           2             5   14     1       0.2817801043E-03       5   13    1         0.2049185014E-03      0.3182237614E-03
          0                 8           1             5   14     1      -0.1684834212E-04       5   13    1        -0.1230592511E-04      0.2160027588E-04

    ------------------------------------------------
       NWT REQUIRED            8 OUTER ITERATIONS 
       AND A TOTAL OF         25 INNER ITERATIONS.
    ------------------------------------------------

 OUTPUT CONTROL FOR STRESS PERIOD    1   TIME STEP    1
    PRINT BUDGET
    SAVE BUDGET
 UBDSV2 SAVING "   CONSTANT HEAD" ON UNIT 102 AT TIME STEP     1, STRESS PERIOD   1
 UBDSV1 SAVING "FLOW RIGHT FACE " ON UNIT 102 AT TIME STEP     1, STRESS PERIOD   1
 UBDSV1 SAVING "FLOW FRONT FACE " ON UNIT 102 AT TIME STEP     1, STRESS PERIOD   1

  HEAD DEP BOUNDS   PERIOD    1   STEP     1
 BOUNDARY      1   LAYER   1   ROW    13   COL     1   RATE   -0.284481    
 BOUNDARY      2   LAYER   1   ROW    14   COL     9   RATE    0.285742    



 STREAM LISTING     PERIOD      1   STEP        1

 LAYER ROW COL. STREAM  RCH.  FLOW INTO     FLOW TO   FLOW OUT OF   OVRLND.     DIRECT     STREAM       STREAM     STREAM     STREAM   STREAMBED  STREAMBED
                SEG.NO.  NO.  STRM. RCH.    AQUIFER    STRM. RCH.    RUNOFF     PRECIP       ET          HEAD       DEPTH      WIDTH   CONDCTNC.   GRADIENT

   1    1    1     1     1    5.0000E+00  9.9080E-02   4.9009E+00  0.000E+00  0.000E+00  0.000E+00  1.09378E+03  7.365E-01  5.893E+00  2.652E-02  1.246E+00
   1    2    2     1     2    4.9009E+00  1.5199E-01   4.7489E+00  0.000E+00  0.000E+00  0.000E+00  1.08879E+03  7.320E-01  5.818E+00  4.072E-02  1.244E+00
   1    3    3     1     3    4.7489E+00  1.2820E-01   4.6207E+00  0.000E+00  0.000E+00  0.000E+00  1.08315E+03  7.269E-01  5.733E+00  3.440E-02  1.242E+00
   1    3    4     1     4    4.6207E+00  1.1689E-01   4.5038E+00  0.000E+00  0.000E+00  0.000E+00  1.07813E+03  7.223E-01  5.658E+00  3.140E-02  1.241E+00
   1    4    5     2     1    2.5038E+00  2.5694E-01   2.2469E+00  0.000E+00  0.000E+00  0.000E+00  1.07223E+03  2.942E-01  1.200E+01  7.800E-02  1.098E+00
   1    5    6     2     2    2.2469E+00  1.9662E-01   2.0503E+00  0.000E+00  0.000E+00  0.000E+00  1.06679E+03  2.770E-01  1.200E+01  6.000E-02  1.092E+00
   1    6    6     2     3    2.0503E+00  1.9569E-01   1.8546E+00  0.000E+00  0.000E+00  0.000E+00  1.06205E+03  2.615E-01  1.200E+01  6.000E-02  1.087E+00
   1    7    6     2     4    1.8546E+00  1.9473E-01   1.6599E+00  0.000E+00  0.000E+00  0.000E+00  1.05732E+03  2.455E-01  1.200E+01  6.000E-02  1.082E+00
   1    8    6     2     5    1.6599E+00  1.9373E-01   1.4661E+00  0.000E+00  0.000E+00  0.000E+00  1.05259E+03  2.288E-01  1.200E+01  6.000E-02  1.076E+00
   1    3    5     3     1    2.0000E+00  2.8252E-01   1.7175E+00  0.000E+00  0.000E+00  0.000E+00  1.07555E+03  1.909E+00  9.636E+00  7.227E-02  1.955E+00
   1    3    6     3     2    1.7175E+00  2.4905E-01   1.4684E+00  0.000E+00  0.000E+00  0.000E+00  1.07264E+03  1.727E+00  8.909E+00  6.682E-02  1.864E+00
   1    3    7     3     3    1.4684E+00  1.9718E-01   1.2712E+00  0.000E+00  0.000E+00  0.000E+00  1.06987E+03  1.555E+00  8.218E+00  5.547E-02  1.777E+00
   1    4    8     3     4    1.2712E+00  2.2567E-01   1.0456E+00  0.000E+00  0.000E+00  0.000E+00  1.06682E+03  1.364E+00  7.455E+00  6.709E-02  1.682E+00
   1    5    8     3     5    1.0456E+00  1.5790E-01   8.8768E-01  0.000E+00  0.000E+00  0.000E+00  1.06362E+03  1.164E+00  6.655E+00  4.991E-02  1.582E+00
   1    6    8     3     6    8.8768E-01  5.5980E-02   8.3170E-01  0.000E+00  0.000E+00  0.000E+00  1.06158E+03  1.036E+00  6.145E+00  1.844E-02  1.518E+00
   1    5   10     4     1    1.0000E+01  9.0919E-02   9.9091E+00  0.000E+00  0.000E+00  0.000E+00  1.07836E+03  6.368E-01  1.000E+01  2.500E-02  1.212E+00
   1    5    9     4     2    9.9091E+00  1.8158E-01   9.7275E+00  0.000E+00  0.000E+00  0.000E+00  1.07154E+03  6.315E-01  1.000E+01  5.000E-02  1.211E+00
   1    6    8     4     3    9.7275E+00  1.2689E-01   9.6006E+00  0.000E+00  0.000E+00  0.000E+00  1.06381E+03  6.256E-01  1.000E+01  3.500E-02  1.209E+00
   1    6    8     5     1    1.0432E+01  2.2686E-01   1.0205E+01  0.000E+00  0.000E+00  0.000E+00  1.05868E+03  6.790E-01  1.542E+01  6.166E-02  1.226E+00
   1    7    7     5     2    1.0205E+01  2.7894E-01   9.9265E+00  0.000E+00  0.000E+00  0.000E+00  1.05417E+03  6.732E-01  1.519E+01  7.594E-02  1.224E+00
   1    8    7     5     3    9.9265E+00  1.9221E-01   9.7343E+00  0.000E+00  0.000E+00  0.000E+00  1.04992E+03  6.676E-01  1.497E+01  5.241E-02  1.223E+00
   1    8    6     5     4    9.7343E+00  1.3577E-01   9.5985E+00  0.000E+00  0.000E+00  0.000E+00  1.04691E+03  6.637E-01  1.482E+01  3.706E-02  1.221E+00
   1    9    6     6     1    1.1065E+01  2.2465E-01   1.0840E+01  0.000E+00  0.000E+00  0.000E+00  1.04347E+03  7.442E-01  1.200E+01  6.000E-02  1.248E+00
   1   10    7     6     2    1.0840E+01  2.2410E-01   1.0616E+01  0.000E+00  0.000E+00  0.000E+00  1.03892E+03  7.350E-01  1.200E+01  6.000E-02  1.245E+00
   1   11    7     6     3    1.0616E+01  2.2354E-01   1.0392E+01  0.000E+00  0.000E+00  0.000E+00  1.03436E+03  7.257E-01  1.200E+01  6.000E-02  1.242E+00
   1   12    7     6     4    1.0392E+01  2.2299E-01   1.0169E+01  0.000E+00  0.000E+00  0.000E+00  1.02981E+03  7.165E-01  1.200E+01  6.000E-02  1.239E+00
   1   13    7     6     5    1.0169E+01 -9.5297E-02   1.0265E+01  0.000E+00  0.000E+00  0.000E+00  1.02662E+03  7.138E-01  1.200E+01  2.400E-01 -1.324E-01
   1   14    9     7     1    1.5000E+02  1.3356E+00   1.4866E+02  0.000E+00  0.000E+00  0.000E+00  1.03987E+03  2.288E+00  5.529E+01  5.593E-01  7.960E-01
   1   13    8     7     2    1.4866E+02  1.8417E+00   1.4682E+02  0.000E+00  0.000E+00  0.000E+00  1.03478E+03  2.279E+00  5.526E+01  6.148E-01  9.986E-01
   1   13    7     7     3    1.4682E+02  1.4909E+00   1.4533E+02  0.000E+00  0.000E+00  0.000E+00  1.02969E+03  2.270E+00  5.522E+01  5.584E-01  8.899E-01
   1   13    6     8     1    1.5560E+02  8.6429E-01   1.5473E+02  0.000E+00  0.000E+00  0.000E+00  1.02473E+03  2.853E+00  4.137E+01  4.215E-01  6.835E-01
   1   13    5     8     2    1.5473E+02  1.5160E-01   1.5458E+02  0.000E+00  0.000E+00  0.000E+00  1.01847E+03  2.849E+00  4.132E+01  4.210E-01  1.200E-01
   1   13    4     8     3    1.5458E+02 -2.4372E+00   1.5702E+02  0.000E+00  0.000E+00  0.000E+00  1.01223E+03  2.857E+00  4.143E+01  4.222E+00 -1.924E-01
   1   13    3     8     4    1.5702E+02 -3.5513E+00   1.6057E+02  0.000E+00  0.000E+00  0.000E+00  1.00600E+03  2.878E+00  4.173E+01  4.252E+00 -2.784E-01
   1   13    2     8     5    1.6057E+02 -2.4851E+00   1.6305E+02  0.000E+00  0.000E+00  0.000E+00  9.99773E+02  2.898E+00  4.202E+01  4.282E+00 -1.934E-01
   1   13    1     8     6    1.6305E+02 -1.8047E+00   1.6486E+02  0.000E+00  0.000E+00  0.000E+00  9.94787E+02  2.912E+00  4.223E+01  2.582E+00 -2.330E-01
   1    6    8     9     1    0.0000E+00  0.0000E+00   0.0000E+00  0.000E+00  0.000E+00  0.000E+00  1.07850E+03  0.000E+00  4.000E+00  0.000E+00  1.000E+00



 UBDSV3 SAVING "           GW ET" ON UNIT  61 AT TIME STEP     1, STRESS PERIOD   1
 UBDSV3 SAVING "    UZF RECHARGE" ON UNIT  61 AT TIME STEP     1, STRESS PERIOD   1
 UBDSV3 SAVING " SURFACE LEAKAGE" ON UNIT  61 AT TIME STEP     1, STRESS PERIOD   1
 UBDSV3 SAVING "       HORT+DUNN" ON UNIT  61 AT TIME STEP     1, STRESS PERIOD   1
 UBDSV3 SAVING "  STORAGE CHANGE" ON UNIT  61 AT TIME STEP     1, STRESS PERIOD   1


UNSATURATED ZONE PACKAGE VOLUMETRIC BUDGET FOR  TIME STEP     1 STRESS PERIOD    1
  ------------------------------------------------------------------------------



     CUMULATIVE VOLUMES      L**3       RATES FOR THIS TIME STEP      L**3/T
     ------------------                 ------------------------

           IN:                                      IN:
           ---                                      ---
        INFILTRATION =       73224.0000          INFILTRATION =           0.8475

          OUT:                                     OUT:
          ----                                     ----
              UZF ET =       0.0000E+00                UZF ET =       0.0000E+00
        UZF RECHARGE =       73224.0000          UZF RECHARGE =           0.8475

            IN - OUT =       0.0000E+00              IN - OUT =       0.0000E+00

          STORAGE:                                 STORAGE:
          --------                                 --------
      STORAGE CHANGE =       0.0000E+00        STORAGE CHANGE =       0.0000E+00

 PERCENT DISCREPANCY IS DIFFERENCE BETWEEN IN-OUT MINUS CHANGE IN STORAGE
 DIVIDED BY THE AVERAGE OF IN AND OUT TIMES 100

 PERCENT DISCREPANCY =           0.00     PERCENT DISCREPANCY =           0.00






1
  VOLUMETRIC BUDGET FOR ENTIRE MODEL AT END OF TIME STEP    1, STRESS PERIOD   1
  ------------------------------------------------------------------------------

     CUMULATIVE VOLUMES      L**3       RATES FOR THIS TIME STEP      L**3/T
     ------------------                 ------------------------

           IN:                                      IN:
           ---                                      ---
             STORAGE     =           0.0000               STORAGE     =           0.0000
       CONSTANT HEAD     =           0.0000         CONSTANT HEAD     =           0.0000
     HEAD DEP BOUNDS     =       24688.1504       HEAD DEP BOUNDS     =           0.2857
      STREAM LEAKAGE     =      908470.8750        STREAM LEAKAGE     =          10.5147
        UZF RECHARGE     =       73223.9531          UZF RECHARGE     =           0.8475
               GW ET     =           0.0000                 GW ET     =           0.0000
     SURFACE LEAKAGE     =           0.0000       SURFACE LEAKAGE     =           0.0000

                TOTAL IN =     1006382.9375                  TOTAL IN =          11.6480

          OUT:                                     OUT:
          ----                                     ----
             STORAGE     =           0.0000               STORAGE     =           0.0000
       CONSTANT HEAD     =           0.0000         CONSTANT HEAD     =           0.0000
     HEAD DEP BOUNDS     =       24579.1270       HEAD DEP BOUNDS     =           0.2845
      STREAM LEAKAGE     =      896273.3750        STREAM LEAKAGE     =          10.3735
        UZF RECHARGE     =           0.0000          UZF RECHARGE     =           0.0000
               GW ET     =       85530.2812                 GW ET     =           0.9899
     SURFACE LEAKAGE     =           0.0000       SURFACE LEAKAGE     =           0.0000

               TOTAL OUT =     1006382.7500                 TOTAL OUT =          11.6479

                IN - OUT =           0.1875                  IN - OUT =       2.8610E-06

     PERCENT DISCREPANCY =           0.00         PERCENT DISCREPANCY =           0.00






         TIME SUMMARY AT END OF TIME STEP    1 IN STRESS PERIOD    1
                    SECONDS     MINUTES      HOURS       DAYS        YEARS
                    -----------------------------------------------------------
   TIME STEP LENGTH  86400.      1440.0      24.000      1.0000     2.73785E-03
 STRESS PERIOD TIME  86400.      1440.0      24.000      1.0000     2.73785E-03
         TOTAL TIME  86400.      1440.0      24.000      1.0000     2.73785E-03
1
1
                            STRESS PERIOD NO.    2, LENGTH =   2628000.    
                            -----------------------------------------------

                              NUMBER OF TIME STEPS =    30

                               MULTIPLIER FOR DELT =     1.000

                            INITIAL TIME STEP SIZE =   87600.00    

 REUSING NON-PARAMETER GHB CELLS FROM LAST STRESS PERIOD

      2 GHB CELLS

 REUSING STREAM SEGMENT DATA FROM LAST STRESS PERIOD



            AREAL INFILTRATION RATE
 READING ON UNIT   19 WITH FORMAT: (10F4.0)            

            1           2           3           4           5           6           7           8           9          10
 ........................................................................................................................
   1    0.000       0.000       0.000       0.000       0.000       0.000       0.000       0.000       0.000       0.000    
   2    0.000       0.000       0.000       0.000       0.000       0.000       0.000       0.000       0.000       0.000    
   3    0.000       0.000       0.000       0.000       0.000       0.000       0.000       0.000       0.000       0.000    
   4    0.000       0.000       0.000       0.000       0.000       0.000       0.000       0.000       0.000       0.000    
   5    0.000       0.000       0.000       0.000       0.000       0.000       0.000       0.000       0.000       0.000    
   6    0.000       0.000       0.000       0.000       0.000       0.000       0.000       0.000       0.000       0.000    
   7    0.000       0.000       0.000       0.000       0.000       0.000       0.000       0.000       0.000       0.000    
   8    0.000       0.000       0.000       0.000       0.000       0.000       0.000       0.000       0.000       0.000    
   9    0.000       0.000       0.000       0.000       0.000       0.000       0.000       0.000       0.000       0.000    
  10    0.000       0.000       0.000       0.000       0.000       0.000       0.000       0.000       0.000       0.000    
  11    0.000       0.000       0.000       0.000       0.000       0.000       0.000       0.000       0.000       0.000    
  12    0.000       0.000       0.000       0.000       0.000       0.000       0.000       0.000       0.000       0.000    
  13    0.000       0.000       0.000       0.000       0.000       0.000       0.000       0.000       0.000       0.000    
  14    0.000       0.000       0.000       0.000       0.000       0.000       0.000       0.000       0.000       0.000    
  15    0.000       0.000       0.000       0.000       0.000       0.000       0.000       0.000       0.000       0.000    

                  ET RATE =  1.000000E-10

 USING ET EXTINCTION DEPTH FROM PREVIOUS STRESS PERIOD. CURRENT PERIOD IS:       2

 USING EXTINCTION WATER CONTENT FROM PREVIOUS STRESS PERIOD. CURRENT PERIOD IS:       2

 PROCESSING AWU STRESS PERIOD DATA

 READING AWU STRESS PERIOD DATA

 READING IRRIGATION WELL

 END PROCESSING AWU STRESS PERIOD DATA OPTIONS
 
 SOLVING FOR HEAD 
                                                   Max.-Head-Change                         Max.-Flux-Residual
  Residual-Control   Outer-Iter.   Inner-Iter.     Column Row Layer    Maximum-Head-Change  Column Row Layer    Maximum-Flux-Residual          L2-NORM 
          0                 1           2             3   13     1       0.3695811447E-02       3   13    1         0.2097259332E+00      0.4206514181E+00
          0                 2           2             4   13     1      -0.3602496148E-03       4   13    1        -0.2060753453E-01      0.4127196333E-01
          0                 3           1             4   13     1       0.3174583563E-04       4   13    1         0.1832686444E-02      0.3638829703E-02

    ------------------------------------------------
       NWT REQUIRED            3 OUTER ITERATIONS 
       AND A TOTAL OF          5 INNER ITERATIONS.
    ------------------------------------------------

 NO OUTPUT CONTROL FOR STRESS PERIOD    2   TIME STEP    1
 
 SOLVING FOR HEAD 
                                                   Max.-Head-Change                         Max.-Flux-Residual
  Residual-Control   Outer-Iter.   Inner-Iter.     Column Row Layer    Maximum-Head-Change  Column Row Layer    Maximum-Flux-Residual          L2-NORM 
          0                 1           2             1   13     1       0.3408416384E-02       3   13    1         0.1924338152E+00      0.3963649246E+00
          0                 2           2             4   13     1      -0.3308058409E-03       4   13    1        -0.1890932817E-01      0.3890517027E-01
          0                 3           1             4   13     1       0.2914032413E-04       4   13    1         0.1681009271E-02      0.3431669599E-02

    ------------------------------------------------
       NWT REQUIRED            3 OUTER ITERATIONS 
       AND A TOTAL OF          5 INNER ITERATIONS.
    ------------------------------------------------

 NO OUTPUT CONTROL FOR STRESS PERIOD    2   TIME STEP    2
 
 SOLVING FOR HEAD 
                                                   Max.-Head-Change                         Max.-Flux-Residual
  Residual-Control   Outer-Iter.   Inner-Iter.     Column Row Layer    Maximum-Head-Change  Column Row Layer    Maximum-Flux-Residual          L2-NORM 
          0                 1           2             1   13     1       0.3252232563E-02       1   13    1         0.1773945912E+00      0.3741203089E+00
          0                 2           2             1   13     1      -0.3134128054E-03       4   13    1        -0.1736623896E-01      0.3674062846E-01
          0                 3           1             1   13     1       0.2710479193E-04       4   13    1         0.1544077829E-02      0.3242323427E-02

    ------------------------------------------------
       NWT REQUIRED            3 OUTER ITERATIONS 
       AND A TOTAL OF          5 INNER ITERATIONS.
    ------------------------------------------------

 NO OUTPUT CONTROL FOR STRESS PERIOD    2   TIME STEP    3
 
 SOLVING FOR HEAD 
                                                   Max.-Head-Change                         Max.-Flux-Residual
  Residual-Control   Outer-Iter.   Inner-Iter.     Column Row Layer    Maximum-Head-Change  Column Row Layer    Maximum-Flux-Residual          L2-NORM 
          0                 1           2             1   13     1       0.3102964565E-02       1   13    1         0.1692548422E+00      0.3537348692E+00
          0                 2           2             1   13     1      -0.2992429906E-03       1   13    1        -0.1647513189E-01      0.3475528925E-01
          0                 3           1             5   13     1       0.2612898738E-04       1   13    1         0.1439250835E-02      0.3068624358E-02

    ------------------------------------------------
       NWT REQUIRED            3 OUTER ITERATIONS 
       AND A TOTAL OF          5 INNER ITERATIONS.
    ------------------------------------------------

 NO OUTPUT CONTROL FOR STRESS PERIOD    2   TIME STEP    4
 
 SOLVING FOR HEAD 
                                                   Max.-Head-Change                         Max.-Flux-Residual
  Residual-Control   Outer-Iter.   Inner-Iter.     Column Row Layer    Maximum-Head-Change  Column Row Layer    Maximum-Flux-Residual          L2-NORM 
          0                 1           2             1   13     1       0.2960289075E-02       1   13    1         0.1614747305E+00      0.3350327077E+00
          0                 2           2             1   13     1      -0.2856721629E-03       1   13    1        -0.1572810999E-01      0.3293558515E-01
          0                 3           1             5   13     1       0.2531875062E-04       5   13    1         0.1383814794E-02      0.2910009725E-02

    ------------------------------------------------
       NWT REQUIRED            3 OUTER ITERATIONS 
       AND A TOTAL OF          5 INNER ITERATIONS.
    ------------------------------------------------

 NO OUTPUT CONTROL FOR STRESS PERIOD    2   TIME STEP    5
 
 SOLVING FOR HEAD 
                                                   Max.-Head-Change                         Max.-Flux-Residual
  Residual-Control   Outer-Iter.   Inner-Iter.     Column Row Layer    Maximum-Head-Change  Column Row Layer    Maximum-Flux-Residual          L2-NORM 
          0                 1           2             1   13     1       0.2823996689E-02       1   13    1         0.1540428028E+00      0.3178571205E+00
          0                 2           2             5   13     1      -0.2750990060E-03       1   13    1        -0.1501404648E-01      0.3126317130E-01
          0                 3           1             5   13     1       0.2452320630E-04       5   13    1         0.1340705245E-02      0.2764077393E-02

    ------------------------------------------------
       NWT REQUIRED            3 OUTER ITERATIONS 
       AND A TOTAL OF          5 INNER ITERATIONS.
    ------------------------------------------------

 NO OUTPUT CONTROL FOR STRESS PERIOD    2   TIME STEP    6
 
 SOLVING FOR HEAD 
                                                   Max.-Head-Change                         Max.-Flux-Residual
  Residual-Control   Outer-Iter.   Inner-Iter.     Column Row Layer    Maximum-Head-Change  Column Row Layer    Maximum-Flux-Residual          L2-NORM 
          0                 1           2             1   13     1       0.2693750754E-02       1   13    1         0.1469406443E+00      0.3020840812E+00
          0                 2           2             5   13     1      -0.2664134698E-03       5   13    1        -0.1443437869E-01      0.2972787335E-01
          0                 3           1             5   13     1       0.2374817459E-04       5   13    1         0.1298643668E-02      0.2631215237E-02

    ------------------------------------------------
       NWT REQUIRED            3 OUTER ITERATIONS 
       AND A TOTAL OF          5 INNER ITERATIONS.
    ------------------------------------------------

 NO OUTPUT CONTROL FOR STRESS PERIOD    2   TIME STEP    7
 
 SOLVING FOR HEAD 
                                                   Max.-Head-Change                         Max.-Flux-Residual
  Residual-Control   Outer-Iter.   Inner-Iter.     Column Row Layer    Maximum-Head-Change  Column Row Layer    Maximum-Flux-Residual          L2-NORM 
          0                 1           2             5   13     1       0.2604097962E-02       1   13    1         0.1401563995E+00      0.2875750070E+00
          0                 2           2             5   13     1      -0.2579444539E-03       5   13    1        -0.1397838732E-01      0.2831802582E-01
          0                 3           1             5   13     1       0.2299422768E-04       5   13    1         0.1257660474E-02      0.2507073494E-02

    ------------------------------------------------
       NWT REQUIRED            3 OUTER ITERATIONS 
       AND A TOTAL OF          5 INNER ITERATIONS.
    ------------------------------------------------

 NO OUTPUT CONTROL FOR STRESS PERIOD    2   TIME STEP    8
 
 SOLVING FOR HEAD 
                                                   Max.-Head-Change                         Max.-Flux-Residual
  Residual-Control   Outer-Iter.   Inner-Iter.     Column Row Layer    Maximum-Head-Change  Column Row Layer    Maximum-Flux-Residual          L2-NORM 
          0                 1           2             5   13     1       0.2520861535E-02       5   13    1         0.1353760606E+00      0.2742283907E+00
          0                 2           2             5   13     1      -0.2496987061E-03       5   13    1        -0.1353388889E-01      0.2701907489E-01
          0                 3           1             5   13     1       0.2226017069E-04       5   13    1         0.1217719996E-02      0.2393671109E-02

    ------------------------------------------------
       NWT REQUIRED            3 OUTER ITERATIONS 
       AND A TOTAL OF          5 INNER ITERATIONS.
    ------------------------------------------------

 NO OUTPUT CONTROL FOR STRESS PERIOD    2   TIME STEP    9
 
 SOLVING FOR HEAD 
                                                   Max.-Head-Change                         Max.-Flux-Residual
  Residual-Control   Outer-Iter.   Inner-Iter.     Column Row Layer    Maximum-Head-Change  Column Row Layer    Maximum-Flux-Residual          L2-NORM 
          0                 1           2             5   13     1       0.2439836802E-02       5   13    1         0.1310442165E+00      0.2619260672E+00
          0                 2           2             5   13     1      -0.2416723650E-03       5   13    1        -0.1310075219E-01      0.2582149337E-01
          0                 3           1             5   13     1       0.2154385239E-04       5   13    1         0.1178704311E-02      0.2288175577E-02

    ------------------------------------------------
       NWT REQUIRED            3 OUTER ITERATIONS 
       AND A TOTAL OF          5 INNER ITERATIONS.
    ------------------------------------------------

 NO OUTPUT CONTROL FOR STRESS PERIOD    2   TIME STEP   10
 
 SOLVING FOR HEAD 
                                                   Max.-Head-Change                         Max.-Flux-Residual
  Residual-Control   Outer-Iter.   Inner-Iter.     Column Row Layer    Maximum-Head-Change  Column Row Layer    Maximum-Flux-Residual          L2-NORM 
          0                 1           2             5   13     1       0.2361270710E-02       5   13    1         0.1268397688E+00      0.2505913342E+00
          0                 2           2             5   13     1      -0.2338912195E-03       5   13    1        -0.1268043410E-01      0.2471950710E-01
          0                 3           1             5   13     1       0.2085097187E-04       5   13    1         0.1140923610E-02      0.2192538728E-02

    ------------------------------------------------
       NWT REQUIRED            3 OUTER ITERATIONS 
       AND A TOTAL OF          5 INNER ITERATIONS.
    ------------------------------------------------

 NO OUTPUT CONTROL FOR STRESS PERIOD    2   TIME STEP   11
 
 SOLVING FOR HEAD 
                                                   Max.-Head-Change                         Max.-Flux-Residual
  Residual-Control   Outer-Iter.   Inner-Iter.     Column Row Layer    Maximum-Head-Change  Column Row Layer    Maximum-Flux-Residual          L2-NORM 
          0                 1           2             5   13     1       0.2284920416E-02       5   13    1         0.1227501835E+00      0.2401314142E+00
          0                 2           2             5   13     1      -0.2263278409E-03       5   13    1        -0.1227152880E-01      0.2370204878E-01
          0                 3           1             5   13     1       0.2017655085E-04       5   13    1         0.1104121193E-02      0.2103978975E-02

    ------------------------------------------------
       NWT REQUIRED            3 OUTER ITERATIONS 
       AND A TOTAL OF          5 INNER ITERATIONS.
    ------------------------------------------------

 NO OUTPUT CONTROL FOR STRESS PERIOD    2   TIME STEP   12
 
 SOLVING FOR HEAD 
                                                   Max.-Head-Change                         Max.-Flux-Residual
  Residual-Control   Outer-Iter.   Inner-Iter.     Column Row Layer    Maximum-Head-Change  Column Row Layer    Maximum-Flux-Residual          L2-NORM 
          0                 1           2             5   13     1       0.2210894744E-02       5   13    1         0.1187819914E+00      0.2304701596E+00
          0                 2           2             5   13     1      -0.2189948837E-03       5   13    1        -0.1187475693E-01      0.2276188176E-01
          0                 3           1             5   13     1       0.1952306999E-04       5   13    1         0.1068433493E-02      0.2021611233E-02

    ------------------------------------------------
       NWT REQUIRED            3 OUTER ITERATIONS 
       AND A TOTAL OF          5 INNER ITERATIONS.
    ------------------------------------------------

 NO OUTPUT CONTROL FOR STRESS PERIOD    2   TIME STEP   13
 
 SOLVING FOR HEAD 
                                                   Max.-Head-Change                         Max.-Flux-Residual
  Residual-Control   Outer-Iter.   Inner-Iter.     Column Row Layer    Maximum-Head-Change  Column Row Layer    Maximum-Flux-Residual          L2-NORM 
          0                 1           2             5   13     1       0.2139169183E-02       5   13    1         0.1149344032E+00      0.2215404572E+00
          0                 2           2             5   13     1      -0.2118892924E-03       5   13    1        -0.1149003628E-01      0.2189249692E-01
          0                 3           1             5   13     1       0.1888879803E-04       5   13    1         0.1033778280E-02      0.1945358342E-02

    ------------------------------------------------
       NWT REQUIRED            3 OUTER ITERATIONS 
       AND A TOTAL OF          5 INNER ITERATIONS.
    ------------------------------------------------

 NO OUTPUT CONTROL FOR STRESS PERIOD    2   TIME STEP   14
 
 SOLVING FOR HEAD 
                                                   Max.-Head-Change                         Max.-Flux-Residual
  Residual-Control   Outer-Iter.   Inner-Iter.     Column Row Layer    Maximum-Head-Change  Column Row Layer    Maximum-Flux-Residual          L2-NORM 
          0                 1           2             5   13     1       0.2069713604E-02       5   13    1         0.1112061773E+00      0.2132819402E+00
          0                 2           2             5   13     1      -0.2050128760E-03       5   13    1        -0.1111746745E-01      0.2108967912E-01
          0                 3           1             5   13     1       0.1827599191E-04       5   13    1         0.1000259558E-02      0.1876153364E-02

    ------------------------------------------------
       NWT REQUIRED            3 OUTER ITERATIONS 
       AND A TOTAL OF          5 INNER ITERATIONS.
    ------------------------------------------------

 NO OUTPUT CONTROL FOR STRESS PERIOD    2   TIME STEP   15
 
 SOLVING FOR HEAD 
                                                   Max.-Head-Change                         Max.-Flux-Residual
  Residual-Control   Outer-Iter.   Inner-Iter.     Column Row Layer    Maximum-Head-Change  Column Row Layer    Maximum-Flux-Residual          L2-NORM 
          0                 1           2             5   13     1       0.2002489934E-02       5   13    1         0.1075956229E+00      0.2056353906E+00
          0                 2           2             5   13     1      -0.1983509104E-03       5   13    1        -0.1075632599E-01      0.2034589668E-01
          0                 3           1             5   13     1       0.1768216163E-04       5   13    1         0.9677732830E-03      0.1810177393E-02

    ------------------------------------------------
       NWT REQUIRED            3 OUTER ITERATIONS 
       AND A TOTAL OF          5 INNER ITERATIONS.
    ------------------------------------------------

 NO OUTPUT CONTROL FOR STRESS PERIOD    2   TIME STEP   16
 
 SOLVING FOR HEAD 
                                                   Max.-Head-Change                         Max.-Flux-Residual
  Residual-Control   Outer-Iter.   Inner-Iter.     Column Row Layer    Maximum-Head-Change  Column Row Layer    Maximum-Flux-Residual          L2-NORM 
          0                 1           2             5   13     1       0.1937342860E-02       5   13    1         0.1040946816E+00      0.1985422554E+00
          0                 2           2             5   13     1      -0.1918980415E-03       5   13    1        -0.1040632039E-01      0.1965373568E-01
          0                 3           1             5   13     1       0.1710778964E-04       5   13    1         0.9363159488E-03      0.1749928376E-02

    ------------------------------------------------
       NWT REQUIRED            3 OUTER ITERATIONS 
       AND A TOTAL OF          5 INNER ITERATIONS.
    ------------------------------------------------

 NO OUTPUT CONTROL FOR STRESS PERIOD    2   TIME STEP   17
 
 SOLVING FOR HEAD 
                                                   Max.-Head-Change                         Max.-Flux-Residual
  Residual-Control   Outer-Iter.   Inner-Iter.     Column Row Layer    Maximum-Head-Change  Column Row Layer    Maximum-Flux-Residual          L2-NORM 
          0                 1           2             5   13     1       0.1874465225E-02       5   13    1         0.1007142971E+00      0.1919736956E+00
          0                 2           2             5   13     1      -0.1856702865E-03       5   13    1        -0.1006839378E-01      0.1901350992E-01
          0                 3           1             5   13     1       0.1655212532E-04       5   13    1         0.9059097129E-03      0.1648787140E-02

    ------------------------------------------------
       NWT REQUIRED            3 OUTER ITERATIONS 
       AND A TOTAL OF          5 INNER ITERATIONS.
    ------------------------------------------------

 NO OUTPUT CONTROL FOR STRESS PERIOD    2   TIME STEP   18
 
 SOLVING FOR HEAD 
                                                   Max.-Head-Change                         Max.-Flux-Residual
  Residual-Control   Outer-Iter.   Inner-Iter.     Column Row Layer    Maximum-Head-Change  Column Row Layer    Maximum-Flux-Residual          L2-NORM 
          0                 1           2             5   13     1       0.1813681624E-02       5   13    1         0.9744513009E-01      0.1858774534E+00
          0                 2           2             5   13     1      -0.1796508112E-03       5   13    1        -0.9741614830E-02      0.1842007561E-01
          0                 3           1             5   13     1       0.1601532362E-04       5   13    1         0.8764778663E-03      0.1642637851E-02

    ------------------------------------------------
       NWT REQUIRED            3 OUTER ITERATIONS 
       AND A TOTAL OF          5 INNER ITERATIONS.
    ------------------------------------------------

 NO OUTPUT CONTROL FOR STRESS PERIOD    2   TIME STEP   19
 
 SOLVING FOR HEAD 
                                                   Max.-Head-Change                         Max.-Flux-Residual
  Residual-Control   Outer-Iter.   Inner-Iter.     Column Row Layer    Maximum-Head-Change  Column Row Layer    Maximum-Flux-Residual          L2-NORM 
          0                 1           2             5   13     1       0.1754939722E-02       5   13    1         0.9428459380E-01      0.1802104318E+00
          0                 2           2             5   13     1      -0.1738311354E-03       5   13    1        -0.9425574212E-02      0.1786804304E-01
          0                 3           1             5   13     1       0.1549726150E-04       5   13    1         0.8480729393E-03      0.1594055532E-02

    ------------------------------------------------
       NWT REQUIRED            3 OUTER ITERATIONS 
       AND A TOTAL OF          5 INNER ITERATIONS.
    ------------------------------------------------

 NO OUTPUT CONTROL FOR STRESS PERIOD    2   TIME STEP   20
 
 SOLVING FOR HEAD 
                                                   Max.-Head-Change                         Max.-Flux-Residual
  Residual-Control   Outer-Iter.   Inner-Iter.     Column Row Layer    Maximum-Head-Change  Column Row Layer    Maximum-Flux-Residual          L2-NORM 
          0                 1           2             5   13     1       0.1698190672E-02       5   13    1         0.9123017179E-01      0.1749431582E+00
          0                 2           2             5   13     1      -0.1682095497E-03       5   13    1        -0.9120201947E-02      0.1735319470E-01
          0                 3           1             5   13     1       0.1499476060E-04       5   13    1         0.8205297988E-03      0.1547765251E-02

    ------------------------------------------------
       NWT REQUIRED            3 OUTER ITERATIONS 
       AND A TOTAL OF          5 INNER ITERATIONS.
    ------------------------------------------------

 NO OUTPUT CONTROL FOR STRESS PERIOD    2   TIME STEP   21
 
 SOLVING FOR HEAD 
                                                   Max.-Head-Change                         Max.-Flux-Residual
  Residual-Control   Outer-Iter.   Inner-Iter.     Column Row Layer    Maximum-Head-Change  Column Row Layer    Maximum-Flux-Residual          L2-NORM 
          0                 1           2             5   13     1       0.1643493481E-02       5   13    1         0.8828551051E-01      0.1700395864E+00
          0                 2           2             5   13     1      -0.1627900806E-03       5   13    1        -0.8825727099E-02      0.1687048774E-01
          0                 3           1             5   13     1       0.1451067658E-04       5   13    1         0.7939815634E-03      0.1505857136E-02

    ------------------------------------------------
       NWT REQUIRED            3 OUTER ITERATIONS 
       AND A TOTAL OF          5 INNER ITERATIONS.
    ------------------------------------------------

 NO OUTPUT CONTROL FOR STRESS PERIOD    2   TIME STEP   22
 
 SOLVING FOR HEAD 
                                                   Max.-Head-Change                         Max.-Flux-Residual
  Residual-Control   Outer-Iter.   Inner-Iter.     Column Row Layer    Maximum-Head-Change  Column Row Layer    Maximum-Flux-Residual          L2-NORM 
          0                 1           2             5   13     1       0.1590552171E-02       5   13    1         0.8543448459E-01      0.1654796252E+00
          0                 2           2             5   13     1      -0.1575465083E-03       5   13    1        -0.8540723652E-02      0.1643016204E-01
          0                 3           1             5   13     1       0.1404325964E-04       5   13    1         0.7683438298E-03      0.1467314828E-02

    ------------------------------------------------
       NWT REQUIRED            3 OUTER ITERATIONS 
       AND A TOTAL OF          5 INNER ITERATIONS.
    ------------------------------------------------

 NO OUTPUT CONTROL FOR STRESS PERIOD    2   TIME STEP   23
 
 SOLVING FOR HEAD 
                                                   Max.-Head-Change                         Max.-Flux-Residual
  Residual-Control   Outer-Iter.   Inner-Iter.     Column Row Layer    Maximum-Head-Change  Column Row Layer    Maximum-Flux-Residual          L2-NORM 
          0                 1           2             5   13     1       0.1539549722E-02       5   13    1         0.8268739374E-01      0.1612283991E+00
          0                 2           2             5   13     1      -0.1524944419E-03       5   13    1        -0.8266082276E-02      0.1601507879E-01
          0                 3           1             5   13     1       0.1359388458E-04       5   13    1         0.7436781891E-03      0.1431161933E-02

    ------------------------------------------------
       NWT REQUIRED            3 OUTER ITERATIONS 
       AND A TOTAL OF          5 INNER ITERATIONS.
    ------------------------------------------------

 NO OUTPUT CONTROL FOR STRESS PERIOD    2   TIME STEP   24
 
 SOLVING FOR HEAD 
                                                   Max.-Head-Change                         Max.-Flux-Residual
  Residual-Control   Outer-Iter.   Inner-Iter.     Column Row Layer    Maximum-Head-Change  Column Row Layer    Maximum-Flux-Residual          L2-NORM 
          0                 1           2             5   13     1       0.1490305860E-02       5   13    1         0.8003448078E-01      0.1572608752E+00
          0                 2           2             5   13     1      -0.1476167587E-03       5   13    1        -0.8000862378E-02      0.1562783919E-01
          0                 3           1             5   13     1       0.1315931972E-04       5   13    1         0.7198307528E-03      0.1397791498E-02

    ------------------------------------------------
       NWT REQUIRED            3 OUTER ITERATIONS 
       AND A TOTAL OF          5 INNER ITERATIONS.
    ------------------------------------------------

 NO OUTPUT CONTROL FOR STRESS PERIOD    2   TIME STEP   25
 
 SOLVING FOR HEAD 
                                                   Max.-Head-Change                         Max.-Flux-Residual
  Residual-Control   Outer-Iter.   Inner-Iter.     Column Row Layer    Maximum-Head-Change  Column Row Layer    Maximum-Flux-Residual          L2-NORM 
          0                 1           2             5   13     1       0.1442764102E-02       5   13    1         0.7747282415E-01      0.1535595575E+00
          0                 2           2             5   13     1      -0.1429071986E-03       5   13    1        -0.7744748612E-02      0.1526585850E-01
          0                 3           1             5   13     1       0.1273944240E-04       5   13    1         0.6967889387E-03      0.1365687435E-02

    ------------------------------------------------
       NWT REQUIRED            3 OUTER ITERATIONS 
       AND A TOTAL OF          5 INNER ITERATIONS.
    ------------------------------------------------

 NO OUTPUT CONTROL FOR STRESS PERIOD    2   TIME STEP   26
 
 SOLVING FOR HEAD 
                                                   Max.-Head-Change                         Max.-Flux-Residual
  Residual-Control   Outer-Iter.   Inner-Iter.     Column Row Layer    Maximum-Head-Change  Column Row Layer    Maximum-Flux-Residual          L2-NORM 
          0                 1           2             5   13     1       0.1396986428E-02       5   13    1         0.7500587937E-01      0.1501054957E+00
          0                 2           2             5   13     1      -0.1383724961E-03       5   13    1        -0.7498108281E-02      0.1492826823E-01
          0                 3           1             5   13     1       0.1233543512E-04       5   13    1         0.6746169090E-03      0.1335803020E-02

    ------------------------------------------------
       NWT REQUIRED            3 OUTER ITERATIONS 
       AND A TOTAL OF          5 INNER ITERATIONS.
    ------------------------------------------------

 NO OUTPUT CONTROL FOR STRESS PERIOD    2   TIME STEP   27
 
 SOLVING FOR HEAD 
                                                   Max.-Head-Change                         Max.-Flux-Residual
  Residual-Control   Outer-Iter.   Inner-Iter.     Column Row Layer    Maximum-Head-Change  Column Row Layer    Maximum-Flux-Residual          L2-NORM 
          0                 1           2             5   13     1       0.1352677362E-02       5   13    1         0.7261774446E-01      0.1468733869E+00
          0                 2           2             5   13     1      -0.1339829722E-03       5   13    1        -0.7259328315E-02      0.1461149129E-01
          0                 3           1             5   13     1       0.1194429041E-04       5   13    1         0.6531212234E-03      0.1308160147E-02

    ------------------------------------------------
       NWT REQUIRED            3 OUTER ITERATIONS 
       AND A TOTAL OF          5 INNER ITERATIONS.
    ------------------------------------------------

 NO OUTPUT CONTROL FOR STRESS PERIOD    2   TIME STEP   28
 
 SOLVING FOR HEAD 
                                                   Max.-Head-Change                         Max.-Flux-Residual
  Residual-Control   Outer-Iter.   Inner-Iter.     Column Row Layer    Maximum-Head-Change  Column Row Layer    Maximum-Flux-Residual          L2-NORM 
          0                 1           2             5   13     1       0.1310140783E-02       5   13    1         0.7032499609E-01      0.1438524137E+00
          0                 2           2             5   13     1      -0.1297690299E-03       5   13    1        -0.7030089876E-02      0.1431578009E-01
          0                 3           1             5   13     1       0.1156708961E-04       5   13    1         0.6324266494E-03      0.1282198530E-02

    ------------------------------------------------
       NWT REQUIRED            3 OUTER ITERATIONS 
       AND A TOTAL OF          5 INNER ITERATIONS.
    ------------------------------------------------

 NO OUTPUT CONTROL FOR STRESS PERIOD    2   TIME STEP   29
 
 SOLVING FOR HEAD 
                                                   Max.-Head-Change                         Max.-Flux-Residual
  Residual-Control   Outer-Iter.   Inner-Iter.     Column Row Layer    Maximum-Head-Change  Column Row Layer    Maximum-Flux-Residual          L2-NORM 
          0                 1           2             4   13     1       0.6478451035E-02       4   13    1         0.3705787429E+00      0.7669378170E+00
          0                 2           2             7   13     1      -0.7099946728E-03       7   13    1        -0.3857816765E-01      0.8249743111E-01
          0                 3           1             7   13     1       0.6330556005E-04       7   13    1         0.3471308731E-02      0.7280183673E-02

    ------------------------------------------------
       NWT REQUIRED            3 OUTER ITERATIONS 
       AND A TOTAL OF          5 INNER ITERATIONS.
    ------------------------------------------------

 NO OUTPUT CONTROL FOR STRESS PERIOD    2   TIME STEP   30



 STREAM LISTING     PERIOD      2   STEP       30

 LAYER ROW COL. STREAM  RCH.  FLOW INTO     FLOW TO   FLOW OUT OF   OVRLND.     DIRECT     STREAM       STREAM     STREAM     STREAM   STREAMBED  STREAMBED
                SEG.NO.  NO.  STRM. RCH.    AQUIFER    STRM. RCH.    RUNOFF     PRECIP       ET          HEAD       DEPTH      WIDTH   CONDCTNC.   GRADIENT

   1    1    1     1     1    2.1379E+01  2.2781E-01   2.1151E+01  0.000E+00  0.000E+00  0.000E+00  1.09417E+03  1.121E+00  1.228E+01  5.527E-02  1.374E+00
   1    2    2     1     2    2.1151E+01  3.5211E-01   2.0799E+01  0.000E+00  0.000E+00  0.000E+00  1.08918E+03  1.117E+00  1.222E+01  8.553E-02  1.372E+00
   1    3    3     1     3    2.0799E+01  2.9962E-01   2.0499E+01  0.000E+00  0.000E+00  0.000E+00  1.08353E+03  1.111E+00  1.215E+01  7.288E-02  1.370E+00
   1    3    4     1     4    2.0499E+01  2.7535E-01   2.0224E+01  0.000E+00  0.000E+00  0.000E+00  1.07851E+03  1.106E+00  1.208E+01  6.706E-02  1.369E+00
   1    4    5     2     1    1.8224E+01  3.1152E-01   1.7913E+01  0.000E+00  0.000E+00  0.000E+00  1.07293E+03  9.938E-01  1.200E+01  7.800E-02  1.331E+00
   1    5    6     2     2    1.7913E+01  2.3908E-01   1.7674E+01  0.000E+00  0.000E+00  0.000E+00  1.06749E+03  9.847E-01  1.200E+01  6.000E-02  1.328E+00
   1    6    6     2     3    1.7674E+01  2.3860E-01   1.7435E+01  0.000E+00  0.000E+00  0.000E+00  1.06277E+03  9.767E-01  1.200E+01  6.000E-02  1.326E+00
   1    7    6     2     4    1.7435E+01  2.3812E-01   1.7197E+01  0.000E+00  0.000E+00  0.000E+00  1.05804E+03  9.687E-01  1.200E+01  6.000E-02  1.323E+00
   1    8    6     2     5    1.7197E+01  2.3764E-01   1.6959E+01  0.000E+00  0.000E+00  0.000E+00  1.05332E+03  9.607E-01  1.200E+01  6.000E-02  1.320E+00
   1    3    5     3     1    2.0000E+00  2.8252E-01   1.7175E+00  0.000E+00  0.000E+00  0.000E+00  1.07555E+03  1.909E+00  9.636E+00  7.227E-02  1.955E+00
   1    3    6     3     2    1.7175E+00  2.4905E-01   1.4684E+00  0.000E+00  0.000E+00  0.000E+00  1.07264E+03  1.727E+00  8.909E+00  6.682E-02  1.864E+00
   1    3    7     3     3    1.4684E+00  1.9718E-01   1.2712E+00  0.000E+00  0.000E+00  0.000E+00  1.06987E+03  1.555E+00  8.218E+00  5.547E-02  1.777E+00
   1    4    8     3     4    1.2712E+00  2.2567E-01   1.0456E+00  0.000E+00  0.000E+00  0.000E+00  1.06682E+03  1.364E+00  7.455E+00  6.709E-02  1.682E+00
   1    5    8     3     5    1.0456E+00  1.5790E-01   8.8768E-01  0.000E+00  0.000E+00  0.000E+00  1.06362E+03  1.164E+00  6.655E+00  4.991E-02  1.582E+00
   1    6    8     3     6    8.8768E-01  5.5980E-02   8.3170E-01  0.000E+00  0.000E+00  0.000E+00  1.06158E+03  1.036E+00  6.145E+00  1.844E-02  1.518E+00
   1    5   10     4     1    1.0000E+01  9.0919E-02   9.9091E+00  0.000E+00  0.000E+00  0.000E+00  1.07836E+03  6.368E-01  1.000E+01  2.500E-02  1.212E+00
   1    5    9     4     2    9.9091E+00  1.8158E-01   9.7275E+00  0.000E+00  0.000E+00  0.000E+00  1.07154E+03  6.315E-01  1.000E+01  5.000E-02  1.211E+00
   1    6    8     4     3    9.7275E+00  1.2689E-01   9.6006E+00  0.000E+00  0.000E+00  0.000E+00  1.06381E+03  6.256E-01  1.000E+01  3.500E-02  1.209E+00
   1    6    8     5     1    1.0432E+01  2.2686E-01   1.0205E+01  0.000E+00  0.000E+00  0.000E+00  1.05868E+03  6.790E-01  1.542E+01  6.166E-02  1.226E+00
   1    7    7     5     2    1.0205E+01  2.7894E-01   9.9265E+00  0.000E+00  0.000E+00  0.000E+00  1.05417E+03  6.732E-01  1.519E+01  7.594E-02  1.224E+00
   1    8    7     5     3    9.9265E+00  1.9221E-01   9.7343E+00  0.000E+00  0.000E+00  0.000E+00  1.04992E+03  6.676E-01  1.497E+01  5.241E-02  1.223E+00
   1    8    6     5     4    9.7343E+00  1.3577E-01   9.5985E+00  0.000E+00  0.000E+00  0.000E+00  1.04691E+03  6.637E-01  1.482E+01  3.706E-02  1.221E+00
   1    9    6     6     1    2.6558E+01  2.5575E-01   2.6302E+01  0.000E+00  0.000E+00  0.000E+00  1.04399E+03  1.262E+00  1.200E+01  6.000E-02  1.421E+00
   1   10    7     6     2    2.6302E+01  2.5531E-01   2.6047E+01  0.000E+00  0.000E+00  0.000E+00  1.03944E+03  1.255E+00  1.200E+01  6.000E-02  1.418E+00
   1   11    7     6     3    2.6047E+01  2.5487E-01   2.5792E+01  0.000E+00  0.000E+00  0.000E+00  1.03488E+03  1.248E+00  1.200E+01  6.000E-02  1.416E+00
   1   12    7     6     4    2.5792E+01  2.5443E-01   2.5537E+01  0.000E+00  0.000E+00  0.000E+00  1.03033E+03  1.240E+00  1.200E+01  6.000E-02  1.413E+00
   1   13    7     6     5    2.5537E+01  2.7832E-03   2.5535E+01  0.000E+00  0.000E+00  0.000E+00  1.02715E+03  1.237E+00  1.200E+01  2.400E-02  3.866E-02
   1   14    9     7     1    1.5000E+02  1.3363E+00   1.4866E+02  0.000E+00  0.000E+00  0.000E+00  1.03987E+03  2.288E+00  5.529E+01  5.593E-01  7.964E-01
   1   13    8     7     2    1.4866E+02  1.8419E+00   1.4682E+02  0.000E+00  0.000E+00  0.000E+00  1.03478E+03  2.279E+00  5.526E+01  6.148E-01  9.987E-01
   1   13    7     7     3    1.4682E+02  1.4854E+00   1.4534E+02  0.000E+00  0.000E+00  0.000E+00  1.02969E+03  2.270E+00  5.522E+01  5.584E-01  8.866E-01
   1   13    6     8     1    1.7087E+02  9.2885E-01   1.6994E+02  0.000E+00  0.000E+00  0.000E+00  1.02483E+03  2.955E+00  4.285E+01  4.366E-01  7.091E-01
   1   13    5     8     2    1.6994E+02  1.7589E-01   1.6977E+02  0.000E+00  0.000E+00  0.000E+00  1.01858E+03  2.951E+00  4.279E+01  4.361E-01  1.345E-01
   1   13    4     8     3    1.6977E+02 -2.2815E+00   1.7205E+02  0.000E+00  0.000E+00  0.000E+00  1.01233E+03  2.958E+00  4.289E+01  4.371E+00 -1.740E-01
   1   13    3     8     4    1.7205E+02 -3.4300E+00   1.7548E+02  0.000E+00  0.000E+00  0.000E+00  1.00610E+03  2.977E+00  4.316E+01  4.398E+00 -2.600E-01
   1   13    2     8     5    1.7548E+02 -2.2649E+00   1.7774E+02  0.000E+00  0.000E+00  0.000E+00  9.99870E+02  2.995E+00  4.342E+01  4.425E+00 -1.706E-01
   1   13    1     8     6    1.7774E+02 -1.7606E+00   1.7950E+02  0.000E+00  0.000E+00  0.000E+00  9.94883E+02  3.007E+00  4.361E+01  2.666E+00 -2.201E-01
   1    6    8     9     1    0.0000E+00  0.0000E+00   0.0000E+00  0.000E+00  0.000E+00  0.000E+00  1.07850E+03  0.000E+00  4.000E+00  0.000E+00  1.000E+00





UNSATURATED ZONE PACKAGE VOLUMETRIC BUDGET FOR  TIME STEP    30 STRESS PERIOD    2
  ------------------------------------------------------------------------------



     CUMULATIVE VOLUMES      L**3       RATES FOR THIS TIME STEP      L**3/T
     ------------------                 ------------------------

           IN:                                      IN:
           ---                                      ---
        INFILTRATION =       73224.0000          INFILTRATION =       0.0000E+00

          OUT:                                     OUT:
          ----                                     ----
              UZF ET =       0.0000E+00                UZF ET =       0.0000E+00
        UZF RECHARGE =       73224.0000          UZF RECHARGE =       0.0000E+00

            IN - OUT =       0.0000E+00              IN - OUT =       0.0000E+00

          STORAGE:                                 STORAGE:
          --------                                 --------
      STORAGE CHANGE =       0.0000E+00        STORAGE CHANGE =       0.0000E+00

 PERCENT DISCREPANCY IS DIFFERENCE BETWEEN IN-OUT MINUS CHANGE IN STORAGE
 DIVIDED BY THE AVERAGE OF IN AND OUT TIMES 100

 PERCENT DISCREPANCY =           0.00     PERCENT DISCREPANCY =           0.00






1
  VOLUMETRIC BUDGET FOR ENTIRE MODEL AT END OF TIME STEP   30, STRESS PERIOD   2
  ------------------------------------------------------------------------------

     CUMULATIVE VOLUMES      L**3       RATES FOR THIS TIME STEP      L**3/T
     ------------------                 ------------------------

           IN:                                      IN:
           ---                                      ---
    AWU WELLS            =           0.0000      AWU WELLS            =           0.0000
    DIVERSION SEGMENTS   =           0.0000      DIVERSION SEGMENTS   =           0.0000
    GW IRRIGATION        =           0.0000      GW IRRIGATION        =           0.0000
    SW IRRIGATION        =           0.0000      SW IRRIGATION        =           0.0000
    EFFICIENCY FACTOR GW =           0.0000      EFFICIENCY FACTOR GW =           0.0000
    EFFICIENCY FACTOR SW =           0.0000      EFFICIENCY FACTOR SW =           0.0000

                TOTAL IN =           0.0000                  TOTAL IN =           0.0000

          OUT:                                     OUT:
          ----                                     ----
    AWU WELLS            =           0.0000      AWU WELLS            =           0.0000
    DIVERSION SEGMENTS   =           0.0000      DIVERSION SEGMENTS   =           0.0000
    GW IRRIGATION        =           0.0000      GW IRRIGATION        =           0.0000
    SW IRRIGATION        =           0.0000      SW IRRIGATION        =           0.0000
    EFFICIENCY FACTOR GW =           0.0000      EFFICIENCY FACTOR GW =           0.0000
    EFFICIENCY FACTOR SW =           0.0000      EFFICIENCY FACTOR SW =           0.0000

               TOTAL OUT =           0.0000                 TOTAL OUT =           0.0000

                IN - OUT =           0.0000                  IN - OUT =           0.0000

     PERCENT DISCREPANCY =           0.00         PERCENT DISCREPANCY =           0.00



1
  VOLUMETRIC BUDGET FOR ENTIRE MODEL AT END OF TIME STEP   30, STRESS PERIOD   2
  ------------------------------------------------------------------------------

     CUMULATIVE VOLUMES      L**3       RATES FOR THIS TIME STEP      L**3/T
     ------------------                 ------------------------

           IN:                                      IN:
           ---                                      ---
             STORAGE     =     2029681.1250               STORAGE     =           0.6923
       CONSTANT HEAD     =           0.0000         CONSTANT HEAD     =           0.0000
     HEAD DEP BOUNDS     =      775684.6250       HEAD DEP BOUNDS     =           0.2858
      STREAM LEAKAGE     =    28582970.0000        STREAM LEAKAGE     =          11.6128
        UZF RECHARGE     =       73223.9531          UZF RECHARGE     =           0.0000
               GW ET     =           0.0000                 GW ET     =           0.0000
     SURFACE LEAKAGE     =           0.0000       SURFACE LEAKAGE     =           0.0000
    AWU WELLS            =           0.0000      AWU WELLS            =           0.0000

                TOTAL IN =    31461560.0000                  TOTAL IN =          12.5908

          OUT:                                     OUT:
          ----                                     ----
             STORAGE     =     1554823.1250               STORAGE     =           2.5587
       CONSTANT HEAD     =           0.0000         CONSTANT HEAD     =           0.0000
     HEAD DEP BOUNDS     =      775572.7500       HEAD DEP BOUNDS     =           0.2866
      STREAM LEAKAGE     =    29019074.0000        STREAM LEAKAGE     =           9.7370
        UZF RECHARGE     =           0.0000          UZF RECHARGE     =           0.0000
               GW ET     =      111750.9453                 GW ET     =       1.0033E-02
     SURFACE LEAKAGE     =           0.0000       SURFACE LEAKAGE     =           0.0000
    AWU WELLS            =           0.0000      AWU WELLS            =           0.0000

               TOTAL OUT =    31461220.0000                 TOTAL OUT =          12.5924

                IN - OUT =         340.0000                  IN - OUT =      -1.5173E-03

     PERCENT DISCREPANCY =           0.00         PERCENT DISCREPANCY =          -0.01






         TIME SUMMARY AT END OF TIME STEP   30 IN STRESS PERIOD    2
                    SECONDS     MINUTES      HOURS       DAYS        YEARS
                    -----------------------------------------------------------
   TIME STEP LENGTH  87600.      1460.0      24.333      1.0139     2.77588E-03
 STRESS PERIOD TIME 2.62800E+06  43800.      730.00      30.417     8.32763E-02
         TOTAL TIME 2.71440E+06  45240.      754.00      31.417     8.60141E-02
1
1
                            STRESS PERIOD NO.    3, LENGTH =   2628000.    
                            -----------------------------------------------

                              NUMBER OF TIME STEPS =    30

                               MULTIPLIER FOR DELT =     1.000

                            INITIAL TIME STEP SIZE =   87600.00    

 REUSING NON-PARAMETER GHB CELLS FROM LAST STRESS PERIOD

      2 GHB CELLS

 REUSING STREAM SEGMENT DATA FROM LAST STRESS PERIOD



            AREAL INFILTRATION RATE
 READING ON UNIT   19 WITH FORMAT: (10F4.0)            

            1           2           3           4           5           6           7           8           9          10
 ........................................................................................................................
   1    0.000       0.000       0.000       0.000       0.000       0.000       0.000       0.000       0.000       0.000    
   2    0.000       0.000       0.000       0.000       0.000       0.000       0.000       0.000       0.000       0.000    
   3    0.000       0.000       0.000       0.000       0.000       0.000       0.000       0.000       0.000       0.000    
   4    0.000       0.000       0.000       0.000       0.000       0.000       0.000       0.000       0.000       0.000    
   5    0.000       0.000       0.000       0.000       0.000       0.000       0.000       0.000       0.000       0.000    
   6    0.000       0.000       0.000       0.000       0.000       0.000       0.000       0.000       0.000       0.000    
   7    0.000       0.000       0.000       0.000       0.000       0.000       0.000       0.000       0.000       0.000    
   8    0.000       0.000       0.000       0.000       0.000       0.000       0.000       0.000       0.000       0.000    
   9    0.000       0.000       0.000       0.000       0.000       0.000       0.000       0.000       0.000       0.000    
  10    0.000       0.000       0.000       0.000       0.000       0.000       0.000       0.000       0.000       0.000    
  11    0.000       0.000       0.000       0.000       0.000       0.000       0.000       0.000       0.000       0.000    
  12    0.000       0.000       0.000       0.000       0.000       0.000       0.000       0.000       0.000       0.000    
  13    0.000       0.000       0.000       0.000       0.000       0.000       0.000       0.000       0.000       0.000    
  14    0.000       0.000       0.000       0.000       0.000       0.000       0.000       0.000       0.000       0.000    
  15    0.000       0.000       0.000       0.000       0.000       0.000       0.000       0.000       0.000       0.000    

                  ET RATE =  1.000000E-10

 USING ET EXTINCTION DEPTH FROM PREVIOUS STRESS PERIOD. CURRENT PERIOD IS:       3

 USING EXTINCTION WATER CONTENT FROM PREVIOUS STRESS PERIOD. CURRENT PERIOD IS:       3

 PROCESSING AWU STRESS PERIOD DATA

 READING AWU STRESS PERIOD DATA

 READING IRRIGATION WELL

 END PROCESSING AWU STRESS PERIOD DATA OPTIONS
 
 SOLVING FOR HEAD 
                                                   Max.-Head-Change                         Max.-Flux-Residual
  Residual-Control   Outer-Iter.   Inner-Iter.     Column Row Layer    Maximum-Head-Change  Column Row Layer    Maximum-Flux-Residual          L2-NORM 
          0                 1           2             4   13     1       0.6141873646E-02       4   13    1         0.3511495940E+00      0.7447255533E+00
          0                 2           2             4   13     1      -0.6019342555E-03       4   13    1        -0.3473364826E-01      0.7292543065E-01
          0                 3           1             4   13     1       0.5303352737E-04       4   13    1         0.3088602668E-02      0.6415674329E-02

    ------------------------------------------------
       NWT REQUIRED            3 OUTER ITERATIONS 
       AND A TOTAL OF          5 INNER ITERATIONS.
    ------------------------------------------------

 NO OUTPUT CONTROL FOR STRESS PERIOD    3   TIME STEP    1
 
 SOLVING FOR HEAD 
                                                   Max.-Head-Change                         Max.-Flux-Residual
  Residual-Control   Outer-Iter.   Inner-Iter.     Column Row Layer    Maximum-Head-Change  Column Row Layer    Maximum-Flux-Residual          L2-NORM 
          0                 1           2             4   13     1       0.5592296789E-02       4   13    1         0.3194883467E+00      0.7039201927E+00
          0                 2           2             4   13     1      -0.5479897129E-03       4   13    1        -0.3159677815E-01      0.6899057840E-01
          0                 3           1             4   13     1       0.4827092938E-04       4   13    1         0.2809069659E-02      0.6075360274E-02

    ------------------------------------------------
       NWT REQUIRED            3 OUTER ITERATIONS 
       AND A TOTAL OF          5 INNER ITERATIONS.
    ------------------------------------------------

 NO OUTPUT CONTROL FOR STRESS PERIOD    3   TIME STEP    2
 
 SOLVING FOR HEAD 
                                                   Max.-Head-Change                         Max.-Flux-Residual
  Residual-Control   Outer-Iter.   Inner-Iter.     Column Row Layer    Maximum-Head-Change  Column Row Layer    Maximum-Flux-Residual          L2-NORM 
          0                 1           2             2   13     1       0.5146986612E-02       4   13    1         0.2909113785E+00      0.6670528114E+00
          0                 2           2             4   13     1      -0.4992769668E-03       4   13    1        -0.2876534918E-01      0.6543324958E-01
          0                 3           1             4   13     1       0.4396125013E-04       4   13    1         0.2556221732E-02      0.5767277431E-02

    ------------------------------------------------
       NWT REQUIRED            3 OUTER ITERATIONS 
       AND A TOTAL OF          5 INNER ITERATIONS.
    ------------------------------------------------

 NO OUTPUT CONTROL FOR STRESS PERIOD    3   TIME STEP    3
 
 SOLVING FOR HEAD 
                                                   Max.-Head-Change                         Max.-Flux-Residual
  Residual-Control   Outer-Iter.   Inner-Iter.     Column Row Layer    Maximum-Head-Change  Column Row Layer    Maximum-Flux-Residual          L2-NORM 
          0                 1           2             2   13     1       0.4773383549E-02       2   13    1         0.2683947311E+00      0.6337366192E+00
          0                 2           2             4   13     1      -0.4552783903E-03       4   13    1        -0.2620889676E-01      0.6222269872E-01
          0                 3           1             4   13     1       0.4009166193E-04       4   13    1         0.2329314804E-02      0.5489453593E-02

    ------------------------------------------------
       NWT REQUIRED            3 OUTER ITERATIONS 
       AND A TOTAL OF          5 INNER ITERATIONS.
    ------------------------------------------------

 NO OUTPUT CONTROL FOR STRESS PERIOD    3   TIME STEP    4
 
 SOLVING FOR HEAD 
                                                   Max.-Head-Change                         Max.-Flux-Residual
  Residual-Control   Outer-Iter.   Inner-Iter.     Column Row Layer    Maximum-Head-Change  Column Row Layer    Maximum-Flux-Residual          L2-NORM 
          0                 1           2             2   13     1       0.4427405100E-02       2   13    1         0.2489085146E+00      0.6036365148E+00
          0                 2           2             2   13     1      -0.4194847070E-03       4   13    1        -0.2389781134E-01      0.5932352682E-01
          0                 3           1             4   13     1       0.3657408056E-04       4   13    1         0.2123080154E-02      0.5240307036E-02

    ------------------------------------------------
       NWT REQUIRED            3 OUTER ITERATIONS 
       AND A TOTAL OF          5 INNER ITERATIONS.
    ------------------------------------------------

 NO OUTPUT CONTROL FOR STRESS PERIOD    3   TIME STEP    5
 
 SOLVING FOR HEAD 
                                                   Max.-Head-Change                         Max.-Flux-Residual
  Residual-Control   Outer-Iter.   Inner-Iter.     Column Row Layer    Maximum-Head-Change  Column Row Layer    Maximum-Flux-Residual          L2-NORM 
          0                 1           2             2   13     1       0.4106932128E-02       2   13    1         0.2308600326E+00      0.5764328587E+00
          0                 2           2             2   13     1      -0.3892141937E-03       2   13    1        -0.2207609506E-01      0.5670405484E-01
          0                 3           1             4   13     1       0.3340698377E-04       4   13    1         0.1937502489E-02      0.5013779399E-02

    ------------------------------------------------
       NWT REQUIRED            3 OUTER ITERATIONS 
       AND A TOTAL OF          5 INNER ITERATIONS.
    ------------------------------------------------

 NO OUTPUT CONTROL FOR STRESS PERIOD    3   TIME STEP    6
 
 SOLVING FOR HEAD 
                                                   Max.-Head-Change                         Max.-Flux-Residual
  Residual-Control   Outer-Iter.   Inner-Iter.     Column Row Layer    Maximum-Head-Change  Column Row Layer    Maximum-Flux-Residual          L2-NORM 
          0                 1           2             2   13     1       0.3810153676E-02       2   13    1         0.2141471310E+00      0.5518451316E+00
          0                 2           2             2   13     1      -0.3611756974E-03       2   13    1        -0.2048271688E-01      0.5434344800E-01
          0                 3           1             2    2     1       0.3220512722E-04       4   13    1         0.1769052362E-02      0.4809961764E-02

    ------------------------------------------------
       NWT REQUIRED            3 OUTER ITERATIONS 
       AND A TOTAL OF          5 INNER ITERATIONS.
    ------------------------------------------------

 NO OUTPUT CONTROL FOR STRESS PERIOD    3   TIME STEP    7
 
 SOLVING FOR HEAD 
                                                   Max.-Head-Change                         Max.-Flux-Residual
  Residual-Control   Outer-Iter.   Inner-Iter.     Column Row Layer    Maximum-Head-Change  Column Row Layer    Maximum-Flux-Residual          L2-NORM 
          0                 1           2             2    2     1       0.3617146359E-02       2   13    1         0.1986670516E+00      0.5296057921E+00
          0                 2           2             2    2     1      -0.3584269024E-03       2   13    1        -0.1900543652E-01      0.5220119328E-01
          0                 3           1             2    2     1       0.3196543031E-04       2    2    1         0.1702985446E-02      0.4628177203E-02

    ------------------------------------------------
       NWT REQUIRED            3 OUTER ITERATIONS 
       AND A TOTAL OF          5 INNER ITERATIONS.
    ------------------------------------------------

 NO OUTPUT CONTROL FOR STRESS PERIOD    3   TIME STEP    8
 
 SOLVING FOR HEAD 
                                                   Max.-Head-Change                         Max.-Flux-Residual
  Residual-Control   Outer-Iter.   Inner-Iter.     Column Row Layer    Maximum-Head-Change  Column Row Layer    Maximum-Flux-Residual          L2-NORM 
          0                 1           2             2    2     1       0.3590417137E-02       2    2    1         0.1878128464E+00      0.5094794175E+00
          0                 2           2             2    2     1      -0.3557782678E-03       2    2    1        -0.1878132130E-01      0.5026296987E-01
          0                 3           1             2    2     1       0.3172921828E-04       2    2    1         0.1690318756E-02      0.4453210993E-02

    ------------------------------------------------
       NWT REQUIRED            3 OUTER ITERATIONS 
       AND A TOTAL OF          5 INNER ITERATIONS.
    ------------------------------------------------

 NO OUTPUT CONTROL FOR STRESS PERIOD    3   TIME STEP    9
 
 SOLVING FOR HEAD 
                                                   Max.-Head-Change                         Max.-Flux-Residual
  Residual-Control   Outer-Iter.   Inner-Iter.     Column Row Layer    Maximum-Head-Change  Column Row Layer    Maximum-Flux-Residual          L2-NORM 
          0                 1           2             2    2     1       0.3564076139E-02       2    2    1         0.1864259050E+00      0.4912526263E+00
          0                 2           2             2    2     1      -0.3531681030E-03       2    2    1        -0.1864262642E-01      0.4850909888E-01
          0                 3           1             2    2     1       0.3149643733E-04       2    2    1         0.1677836235E-02      0.4307920763E-02

    ------------------------------------------------
       NWT REQUIRED            3 OUTER ITERATIONS 
       AND A TOTAL OF          5 INNER ITERATIONS.
    ------------------------------------------------

 NO OUTPUT CONTROL FOR STRESS PERIOD    3   TIME STEP   10
 
 SOLVING FOR HEAD 
                                                   Max.-Head-Change                         Max.-Flux-Residual
  Residual-Control   Outer-Iter.   Inner-Iter.     Column Row Layer    Maximum-Head-Change  Column Row Layer    Maximum-Flux-Residual          L2-NORM 
          0                 1           2             2    2     1       0.3538117010E-02       2    2    1         0.1850591080E+00      0.4747302666E+00
          0                 2           2             2    2     1      -0.3505957780E-03       2    2    1        -0.1850594600E-01      0.4692068895E-01
          0                 3           1             2    2     1       0.3126703073E-04       2    2    1         0.1665534992E-02      0.4170699018E-02

    ------------------------------------------------
       NWT REQUIRED            3 OUTER ITERATIONS 
       AND A TOTAL OF          5 INNER ITERATIONS.
    ------------------------------------------------

 NO OUTPUT CONTROL FOR STRESS PERIOD    3   TIME STEP   11
 
 SOLVING FOR HEAD 
                                                   Max.-Head-Change                         Max.-Flux-Residual
  Residual-Control   Outer-Iter.   Inner-Iter.     Column Row Layer    Maximum-Head-Change  Column Row Layer    Maximum-Flux-Residual          L2-NORM 
          0                 1           2             2    2     1       0.3512446473E-02       2    2    1         0.1837075736E+00      0.4597337498E+00
          0                 2           2             2    2     1      -0.3480520510E-03       2    2    1        -0.1837079188E-01      0.4547803944E-01
          0                 3           1             2    2     1       0.3104017480E-04       2    2    1         0.1653371139E-02      0.4046838333E-02

    ------------------------------------------------
       NWT REQUIRED            3 OUTER ITERATIONS 
       AND A TOTAL OF          5 INNER ITERATIONS.
    ------------------------------------------------

 NO OUTPUT CONTROL FOR STRESS PERIOD    3   TIME STEP   12
 
 SOLVING FOR HEAD 
                                                   Max.-Head-Change                         Max.-Flux-Residual
  Residual-Control   Outer-Iter.   Inner-Iter.     Column Row Layer    Maximum-Head-Change  Column Row Layer    Maximum-Flux-Residual          L2-NORM 
          0                 1           2             2    2     1       0.3487146085E-02       2    2    1         0.1823755657E+00      0.4461091074E+00
          0                 2           2             2    2     1      -0.3455450019E-03       2    2    1        -0.1823759041E-01      0.4416569739E-01
          0                 3           1             2    2     1       0.3081658983E-04       2    2    1         0.1641383016E-02      0.3931770063E-02

    ------------------------------------------------
       NWT REQUIRED            3 OUTER ITERATIONS 
       AND A TOTAL OF          5 INNER ITERATIONS.
    ------------------------------------------------

 NO OUTPUT CONTROL FOR STRESS PERIOD    3   TIME STEP   13
 
 SOLVING FOR HEAD 
                                                   Max.-Head-Change                         Max.-Flux-Residual
  Residual-Control   Outer-Iter.   Inner-Iter.     Column Row Layer    Maximum-Head-Change  Column Row Layer    Maximum-Flux-Residual          L2-NORM 
          0                 1           2             2    2     1       0.3462210164E-02       2    2    1         0.1810627643E+00      0.4337106691E+00
          0                 2           2             2    2     1      -0.3430740686E-03       2    2    1        -0.1810630960E-01      0.4297718556E-01
          0                 3           1             2    2     1       0.3059622572E-04       2    2    1         0.1629567750E-02      0.3828755833E-02

    ------------------------------------------------
       NWT REQUIRED            3 OUTER ITERATIONS 
       AND A TOTAL OF          5 INNER ITERATIONS.
    ------------------------------------------------

 NO OUTPUT CONTROL FOR STRESS PERIOD    3   TIME STEP   14
 
 SOLVING FOR HEAD 
                                                   Max.-Head-Change                         Max.-Flux-Residual
  Residual-Control   Outer-Iter.   Inner-Iter.     Column Row Layer    Maximum-Head-Change  Column Row Layer    Maximum-Flux-Residual          L2-NORM 
          0                 1           2             2    2     1       0.3437633128E-02       2    2    1         0.1797688746E+00      0.4224120093E+00
          0                 2           2             2    2     1      -0.3406386973E-03       2    2    1        -0.1797691997E-01      0.4194702419E-01
          0                 3           1             2    2     1       0.3037903312E-04       2    2    1         0.1617922677E-02      0.3741348939E-02

    ------------------------------------------------
       NWT REQUIRED            3 OUTER ITERATIONS 
       AND A TOTAL OF          5 INNER ITERATIONS.
    ------------------------------------------------

 NO OUTPUT CONTROL FOR STRESS PERIOD    3   TIME STEP   15
 
 SOLVING FOR HEAD 
                                                   Max.-Head-Change                         Max.-Flux-Residual
  Residual-Control   Outer-Iter.   Inner-Iter.     Column Row Layer    Maximum-Head-Change  Column Row Layer    Maximum-Flux-Residual          L2-NORM 
          0                 1           2             2    2     1       0.3413409132E-02       2    2    1         0.1784936069E+00      0.4120375657E+00
          0                 2           2             2    2     1      -0.3382383099E-03       2    2    1        -0.1784939258E-01      0.4088372961E-01
          0                 3           1             2    2     1       0.3016496093E-04       2    2    1         0.1606445228E-02      0.3649627838E-02

    ------------------------------------------------
       NWT REQUIRED            3 OUTER ITERATIONS 
       AND A TOTAL OF          5 INNER ITERATIONS.
    ------------------------------------------------

 NO OUTPUT CONTROL FOR STRESS PERIOD    3   TIME STEP   16
 
 SOLVING FOR HEAD 
                                                   Max.-Head-Change                         Max.-Flux-Residual
  Residual-Control   Outer-Iter.   Inner-Iter.     Column Row Layer    Maximum-Head-Change  Column Row Layer    Maximum-Flux-Residual          L2-NORM 
          0                 1           2             2    2     1       0.3389445362E-02       2    2    1         0.1772321053E+00      0.4025443228E+00
          0                 2           2             2    2     1      -0.3358637088E-03       2    2    1        -0.1772324181E-01      0.3996732259E-01
          0                 3           1             2    2     1       0.2995318743E-04       2    2    1         0.1595091665E-02      0.3570457656E-02

    ------------------------------------------------
       NWT REQUIRED            3 OUTER ITERATIONS 
       AND A TOTAL OF          5 INNER ITERATIONS.
    ------------------------------------------------

 NO OUTPUT CONTROL FOR STRESS PERIOD    3   TIME STEP   17
 
 SOLVING FOR HEAD 
                                                   Max.-Head-Change                         Max.-Flux-Residual
  Residual-Control   Outer-Iter.   Inner-Iter.     Column Row Layer    Maximum-Head-Change  Column Row Layer    Maximum-Flux-Residual          L2-NORM 
          0                 1           2             2    2     1       0.3365823882E-02       2    2    1         0.1759886590E+00      0.3938390255E+00
          0                 2           2             2    2     1      -0.3335230264E-03       2    2    1        -0.1759889657E-01      0.3912703114E-01
          0                 3           1             2    2     1       0.2974443956E-04       2    2    1         0.1583900589E-02      0.3497308655E-02

    ------------------------------------------------
       NWT REQUIRED            3 OUTER ITERATIONS 
       AND A TOTAL OF          5 INNER ITERATIONS.
    ------------------------------------------------

 NO OUTPUT CONTROL FOR STRESS PERIOD    3   TIME STEP   18
 
 SOLVING FOR HEAD 
                                                   Max.-Head-Change                         Max.-Flux-Residual
  Residual-Control   Outer-Iter.   Inner-Iter.     Column Row Layer    Maximum-Head-Change  Column Row Layer    Maximum-Flux-Residual          L2-NORM 
          0                 1           2             2    2     1       0.3342539129E-02       2    2    1         0.1747629736E+00      0.3858409207E+00
          0                 2           2             2    2     1      -0.3312157092E-03       2    2    1        -0.1747632746E-01      0.3835385814E-01
          0                 3           1             2    2     1       0.2953866672E-04       2    2    1         0.1572869364E-02      0.3430553726E-02

    ------------------------------------------------
       NWT REQUIRED            3 OUTER ITERATIONS 
       AND A TOTAL OF          5 INNER ITERATIONS.
    ------------------------------------------------

 NO OUTPUT CONTROL FOR STRESS PERIOD    3   TIME STEP   19
 
 SOLVING FOR HEAD 
                                                   Max.-Head-Change                         Max.-Flux-Residual
  Residual-Control   Outer-Iter.   Inner-Iter.     Column Row Layer    Maximum-Head-Change  Column Row Layer    Maximum-Flux-Residual          L2-NORM 
          0                 1           2             2    2     1       0.3319585990E-02       2    2    1         0.1735547605E+00      0.3784711734E+00
          0                 2           2             2    2     1      -0.3289412526E-03       2    2    1        -0.1735550556E-01      0.3764089998E-01
          0                 3           1             2    2     1       0.2933582544E-04       2    2    1         0.1561995416E-02      0.3368665752E-02

    ------------------------------------------------
       NWT REQUIRED            3 OUTER ITERATIONS 
       AND A TOTAL OF          5 INNER ITERATIONS.
    ------------------------------------------------

 NO OUTPUT CONTROL FOR STRESS PERIOD    3   TIME STEP   20
 
 SOLVING FOR HEAD 
                                                   Max.-Head-Change                         Max.-Flux-Residual
  Residual-Control   Outer-Iter.   Inner-Iter.     Column Row Layer    Maximum-Head-Change  Column Row Layer    Maximum-Flux-Residual          L2-NORM 
          0                 1           2             2    2     1       0.3296959074E-02       2    2    1         0.1723637544E+00      0.3716733244E+00
          0                 2           2             2    2     1      -0.3266991220E-03       2    2    1        -0.1723640438E-01      0.3698188707E-01
          0                 3           1             2    2     1       0.2913586637E-04       2    2    1         0.1551276305E-02      0.3310759064E-02

    ------------------------------------------------
       NWT REQUIRED            3 OUTER ITERATIONS 
       AND A TOTAL OF          5 INNER ITERATIONS.
    ------------------------------------------------

 NO OUTPUT CONTROL FOR STRESS PERIOD    3   TIME STEP   21
 
 SOLVING FOR HEAD 
                                                   Max.-Head-Change                         Max.-Flux-Residual
  Residual-Control   Outer-Iter.   Inner-Iter.     Column Row Layer    Maximum-Head-Change  Column Row Layer    Maximum-Flux-Residual          L2-NORM 
          0                 1           2             2    2     1       0.3274653457E-02       2    2    1         0.1711896755E+00      0.3653851508E+00
          0                 2           2             2    2     1      -0.3244888299E-03       2    2    1        -0.1711899595E-01      0.3637215951E-01
          0                 3           1             2    2     1       0.2893874725E-04       2    2    1         0.1540709554E-02      0.3258061285E-02

    ------------------------------------------------
       NWT REQUIRED            3 OUTER ITERATIONS 
       AND A TOTAL OF          5 INNER ITERATIONS.
    ------------------------------------------------

 NO OUTPUT CONTROL FOR STRESS PERIOD    3   TIME STEP   22
 
 SOLVING FOR HEAD 
                                                   Max.-Head-Change                         Max.-Flux-Residual
  Residual-Control   Outer-Iter.   Inner-Iter.     Column Row Layer    Maximum-Head-Change  Column Row Layer    Maximum-Flux-Residual          L2-NORM 
          0                 1           2             2    2     1       0.3252576898E-02       2    2    1         0.1700277151E+00      0.3595496636E+00
          0                 2           2             2    2     1      -0.3223012356E-03       2    2    1        -0.1700279939E-01      0.3580527091E-01
          0                 3           1             2    2     1       0.2874365201E-04       2    2    1         0.1530251877E-02      0.3208920528E-02

    ------------------------------------------------
       NWT REQUIRED            3 OUTER ITERATIONS 
       AND A TOTAL OF          5 INNER ITERATIONS.
    ------------------------------------------------

 NO OUTPUT CONTROL FOR STRESS PERIOD    3   TIME STEP   23
 
 SOLVING FOR HEAD 
                                                   Max.-Head-Change                         Max.-Flux-Residual
  Residual-Control   Outer-Iter.   Inner-Iter.     Column Row Layer    Maximum-Head-Change  Column Row Layer    Maximum-Flux-Residual          L2-NORM 
          0                 1           2             2    2     1       0.3230812028E-02       2    2    1         0.1688821933E+00      0.3541320758E+00
          0                 2           2             2    2     1      -0.3201445269E-03       2    2    1        -0.1688824670E-01      0.3527896679E-01
          0                 3           1             2    2     1       0.2855131102E-04       2    2    1         0.1519942121E-02      0.3162455818E-02

    ------------------------------------------------
       NWT REQUIRED            3 OUTER ITERATIONS 
       AND A TOTAL OF          5 INNER ITERATIONS.
    ------------------------------------------------

 NO OUTPUT CONTROL FOR STRESS PERIOD    3   TIME STEP   24
 
 SOLVING FOR HEAD 
                                                   Max.-Head-Change                         Max.-Flux-Residual
  Residual-Control   Outer-Iter.   Inner-Iter.     Column Row Layer    Maximum-Head-Change  Column Row Layer    Maximum-Flux-Residual          L2-NORM 
          0                 1           2             2    2     1       0.3209353756E-02       2    2    1         0.1677528447E+00      0.3490748798E+00
          0                 2           2             2    2     1      -0.3180181992E-03       2    2    1        -0.1677531132E-01      0.3478674352E-01
          0                 3           1             2    2     1       0.2836167983E-04       2    2    1         0.1509777953E-02      0.3117643119E-02

    ------------------------------------------------
       NWT REQUIRED            3 OUTER ITERATIONS 
       AND A TOTAL OF          5 INNER ITERATIONS.
    ------------------------------------------------

 NO OUTPUT CONTROL FOR STRESS PERIOD    3   TIME STEP   25
 
 SOLVING FOR HEAD 
                                                   Max.-Head-Change                         Max.-Flux-Residual
  Residual-Control   Outer-Iter.   Inner-Iter.     Column Row Layer    Maximum-Head-Change  Column Row Layer    Maximum-Flux-Residual          L2-NORM 
          0                 1           2             2    2     1       0.3188197560E-02       2    2    1         0.1666394050E+00      0.3443626750E+00
          0                 2           2             2    2     1      -0.3159218051E-03       2    2    1        -0.1666396686E-01      0.3432732889E-01
          0                 3           1             2    2     1       0.2817471792E-04       2    2    1         0.1499756953E-02      0.3078943879E-02

    ------------------------------------------------
       NWT REQUIRED            3 OUTER ITERATIONS 
       AND A TOTAL OF          5 INNER ITERATIONS.
    ------------------------------------------------

 NO OUTPUT CONTROL FOR STRESS PERIOD    3   TIME STEP   26
 
 SOLVING FOR HEAD 
                                                   Max.-Head-Change                         Max.-Flux-Residual
  Residual-Control   Outer-Iter.   Inner-Iter.     Column Row Layer    Maximum-Head-Change  Column Row Layer    Maximum-Flux-Residual          L2-NORM 
          0                 1           2             2    2     1       0.3167338484E-02       2    2    1         0.1655416395E+00      0.3399467151E+00
          0                 2           2             2    2     1      -0.3138548522E-03       2    2    1        -0.1655418981E-01      0.3389656916E-01
          0                 3           1             2    2     1       0.2799038157E-04       2    2    1         0.1489877001E-02      0.3041624968E-02

    ------------------------------------------------
       NWT REQUIRED            3 OUTER ITERATIONS 
       AND A TOTAL OF          5 INNER ITERATIONS.
    ------------------------------------------------

 NO OUTPUT CONTROL FOR STRESS PERIOD    3   TIME STEP   27
 
 SOLVING FOR HEAD 
                                                   Max.-Head-Change                         Max.-Flux-Residual
  Residual-Control   Outer-Iter.   Inner-Iter.     Column Row Layer    Maximum-Head-Change  Column Row Layer    Maximum-Flux-Residual          L2-NORM 
          0                 1           2             2    2     1       0.3146771802E-02       2    2    1         0.1644592912E+00      0.3358059521E+00
          0                 2           2             2    2     1      -0.3118168741E-03       2    2    1        -0.1644595453E-01      0.3349234924E-01
          0                 3           1             2    2     1       0.2780862953E-04       2    2    1         0.1480135834E-02      0.3005988363E-02

    ------------------------------------------------
       NWT REQUIRED            3 OUTER ITERATIONS 
       AND A TOTAL OF          5 INNER ITERATIONS.
    ------------------------------------------------

 NO OUTPUT CONTROL FOR STRESS PERIOD    3   TIME STEP   28
 
 SOLVING FOR HEAD 
                                                   Max.-Head-Change                         Max.-Flux-Residual
  Residual-Control   Outer-Iter.   Inner-Iter.     Column Row Layer    Maximum-Head-Change  Column Row Layer    Maximum-Flux-Residual          L2-NORM 
          0                 1           2             2    2     1       0.3126406094E-02       2    2    1         0.1633875609E+00      0.3319054875E+00
          0                 2           2             2    2     1      -0.3097988104E-03       2    2    1        -0.1633878104E-01      0.3311047907E-01
          0                 3           1             2    2     1       0.2762865356E-04       2    2    1         0.1470490226E-02      0.2972287729E-02

    ------------------------------------------------
       NWT REQUIRED            3 OUTER ITERATIONS 
       AND A TOTAL OF          5 INNER ITERATIONS.
    ------------------------------------------------

 NO OUTPUT CONTROL FOR STRESS PERIOD    3   TIME STEP   29
 
 SOLVING FOR HEAD 
                                                   Max.-Head-Change                         Max.-Flux-Residual
  Residual-Control   Outer-Iter.   Inner-Iter.     Column Row Layer    Maximum-Head-Change  Column Row Layer    Maximum-Flux-Residual          L2-NORM 
          0                 1           2             4   13     1       0.7783888486E-02       4   13    1         0.4463232707E+00      0.9550071376E+00
          0                 2           2             4   13     1      -0.7628645187E-03       4   13    1        -0.4414839514E-01      0.9350709254E-01
          0                 3           1             4   13     1       0.6721342940E-04       4   13    1         0.3925880480E-02      0.8227432663E-02

    ------------------------------------------------
       NWT REQUIRED            3 OUTER ITERATIONS 
       AND A TOTAL OF          5 INNER ITERATIONS.
    ------------------------------------------------

 NO OUTPUT CONTROL FOR STRESS PERIOD    3   TIME STEP   30



 STREAM LISTING     PERIOD      3   STEP       30

 LAYER ROW COL. STREAM  RCH.  FLOW INTO     FLOW TO   FLOW OUT OF   OVRLND.     DIRECT     STREAM       STREAM     STREAM     STREAM   STREAMBED  STREAMBED
                SEG.NO.  NO.  STRM. RCH.    AQUIFER    STRM. RCH.    RUNOFF     PRECIP       ET          HEAD       DEPTH      WIDTH   CONDCTNC.   GRADIENT

   1    1    1     1     1    4.0813E+01  3.0672E-01   4.0506E+01  0.000E+00  0.000E+00  0.000E+00  1.09439E+03  1.337E+00  1.571E+01  7.072E-02  1.446E+00
   1    2    2     1     2    4.0506E+01  4.7505E-01   4.0031E+01  0.000E+00  0.000E+00  0.000E+00  1.08939E+03  1.334E+00  1.566E+01  1.096E-01  1.445E+00
   1    3    3     1     3    4.0031E+01  4.0519E-01   3.9626E+01  0.000E+00  0.000E+00  0.000E+00  1.08375E+03  1.331E+00  1.559E+01  9.355E-02  1.444E+00
   1    3    4     1     4    3.9626E+01  3.7315E-01   3.9253E+01  0.000E+00  0.000E+00  0.000E+00  1.07874E+03  1.328E+00  1.553E+01  8.621E-02  1.443E+00
   1    4    5     2     1    3.7253E+01  3.5331E-01   3.6899E+01  0.000E+00  0.000E+00  0.000E+00  1.07346E+03  1.530E+00  1.200E+01  7.800E-02  1.510E+00
   1    5    6     2     2    3.6899E+01  2.7132E-01   3.6628E+01  0.000E+00  0.000E+00  0.000E+00  1.06803E+03  1.522E+00  1.200E+01  6.000E-02  1.507E+00
   1    6    6     2     3    3.6628E+01  2.7091E-01   3.6357E+01  0.000E+00  0.000E+00  0.000E+00  1.06331E+03  1.515E+00  1.200E+01  6.000E-02  1.505E+00
   1    7    6     2     4    3.6357E+01  2.7051E-01   3.6087E+01  0.000E+00  0.000E+00  0.000E+00  1.05858E+03  1.508E+00  1.200E+01  6.000E-02  1.503E+00
   1    8    6     2     5    3.6087E+01  2.7010E-01   3.5817E+01  0.000E+00  0.000E+00  0.000E+00  1.05386E+03  1.502E+00  1.200E+01  6.000E-02  1.501E+00
   1    3    5     3     1    2.0000E+00  2.8252E-01   1.7175E+00  0.000E+00  0.000E+00  0.000E+00  1.07555E+03  1.909E+00  9.636E+00  7.227E-02  1.955E+00
   1    3    6     3     2    1.7175E+00  2.4905E-01   1.4684E+00  0.000E+00  0.000E+00  0.000E+00  1.07264E+03  1.727E+00  8.909E+00  6.682E-02  1.864E+00
   1    3    7     3     3    1.4684E+00  1.9718E-01   1.2712E+00  0.000E+00  0.000E+00  0.000E+00  1.06987E+03  1.555E+00  8.218E+00  5.547E-02  1.777E+00
   1    4    8     3     4    1.2712E+00  2.2567E-01   1.0456E+00  0.000E+00  0.000E+00  0.000E+00  1.06682E+03  1.364E+00  7.455E+00  6.709E-02  1.682E+00
   1    5    8     3     5    1.0456E+00  1.5790E-01   8.8768E-01  0.000E+00  0.000E+00  0.000E+00  1.06362E+03  1.164E+00  6.655E+00  4.991E-02  1.582E+00
   1    6    8     3     6    8.8768E-01  5.5980E-02   8.3170E-01  0.000E+00  0.000E+00  0.000E+00  1.06158E+03  1.036E+00  6.145E+00  1.844E-02  1.518E+00
   1    5   10     4     1    1.0000E+01  9.0919E-02   9.9091E+00  0.000E+00  0.000E+00  0.000E+00  1.07836E+03  6.368E-01  1.000E+01  2.500E-02  1.212E+00
   1    5    9     4     2    9.9091E+00  1.8158E-01   9.7275E+00  0.000E+00  0.000E+00  0.000E+00  1.07154E+03  6.315E-01  1.000E+01  5.000E-02  1.211E+00
   1    6    8     4     3    9.7275E+00  1.2689E-01   9.6006E+00  0.000E+00  0.000E+00  0.000E+00  1.06381E+03  6.256E-01  1.000E+01  3.500E-02  1.209E+00
   1    6    8     5     1    1.0432E+01  2.2686E-01   1.0205E+01  0.000E+00  0.000E+00  0.000E+00  1.05868E+03  6.790E-01  1.542E+01  6.166E-02  1.226E+00
   1    7    7     5     2    1.0205E+01  2.7894E-01   9.9265E+00  0.000E+00  0.000E+00  0.000E+00  1.05417E+03  6.732E-01  1.519E+01  7.594E-02  1.224E+00
   1    8    7     5     3    9.9265E+00  1.9221E-01   9.7343E+00  0.000E+00  0.000E+00  0.000E+00  1.04992E+03  6.676E-01  1.497E+01  5.241E-02  1.223E+00
   1    8    6     5     4    9.7343E+00  1.3577E-01   9.5985E+00  0.000E+00  0.000E+00  0.000E+00  1.04691E+03  6.637E-01  1.482E+01  3.706E-02  1.221E+00
   1    9    6     6     1    4.5415E+01  2.8462E-01   4.5130E+01  0.000E+00  0.000E+00  0.000E+00  1.04447E+03  1.744E+00  1.200E+01  6.000E-02  1.581E+00
   1   10    7     6     2    4.5130E+01  2.8423E-01   4.4846E+01  0.000E+00  0.000E+00  0.000E+00  1.03992E+03  1.737E+00  1.200E+01  6.000E-02  1.579E+00
   1   11    7     6     3    4.4846E+01  2.8383E-01   4.4562E+01  0.000E+00  0.000E+00  0.000E+00  1.03537E+03  1.731E+00  1.200E+01  6.000E-02  1.577E+00
   1   12    7     6     4    4.4562E+01  2.8344E-01   4.4279E+01  0.000E+00  0.000E+00  0.000E+00  1.03081E+03  1.724E+00  1.200E+01  6.000E-02  1.575E+00
   1   13    7     6     5    4.4279E+01  1.3424E-02   4.4266E+01  0.000E+00  0.000E+00  0.000E+00  1.02763E+03  1.720E+00  1.200E+01  2.400E-02  1.864E-01
   1   14    9     7     1    1.5000E+02  1.3369E+00   1.4866E+02  0.000E+00  0.000E+00  0.000E+00  1.03987E+03  2.288E+00  5.529E+01  5.593E-01  7.968E-01
   1   13    8     7     2    1.4866E+02  1.8392E+00   1.4682E+02  0.000E+00  0.000E+00  0.000E+00  1.03478E+03  2.279E+00  5.526E+01  6.148E-01  9.972E-01
   1   13    7     7     3    1.4682E+02  1.4629E+00   1.4536E+02  0.000E+00  0.000E+00  0.000E+00  1.02969E+03  2.270E+00  5.522E+01  5.585E-01  8.732E-01
   1   13    6     8     1    1.8963E+02  9.9851E-01   1.8863E+02  0.000E+00  0.000E+00  0.000E+00  1.02495E+03  3.073E+00  4.455E+01  4.540E-01  7.331E-01
   1   13    5     8     2    1.8863E+02  2.1312E-01   1.8841E+02  0.000E+00  0.000E+00  0.000E+00  1.01869E+03  3.069E+00  4.450E+01  4.535E-01  1.567E-01
   1   13    4     8     3    1.8841E+02 -2.1540E+00   1.9057E+02  0.000E+00  0.000E+00  0.000E+00  1.01245E+03  3.075E+00  4.459E+01  4.543E+00 -1.580E-01
   1   13    3     8     4    1.9057E+02 -3.3352E+00   1.9390E+02  0.000E+00  0.000E+00  0.000E+00  1.00622E+03  3.091E+00  4.483E+01  4.568E+00 -2.434E-01
   1   13    2     8     5    1.9390E+02 -2.1718E+00   1.9608E+02  0.000E+00  0.000E+00  0.000E+00  9.99983E+02  3.108E+00  4.507E+01  4.592E+00 -1.576E-01
   1   13    1     8     6    1.9608E+02 -1.7092E+00   1.9779E+02  0.000E+00  0.000E+00  0.000E+00  9.94995E+02  3.120E+00  4.523E+01  2.766E+00 -2.060E-01
   1    6    8     9     1    0.0000E+00  0.0000E+00   0.0000E+00  0.000E+00  0.000E+00  0.000E+00  1.07850E+03  0.000E+00  4.000E+00  0.000E+00  1.000E+00





UNSATURATED ZONE PACKAGE VOLUMETRIC BUDGET FOR  TIME STEP    30 STRESS PERIOD    3
  ------------------------------------------------------------------------------



     CUMULATIVE VOLUMES      L**3       RATES FOR THIS TIME STEP      L**3/T
     ------------------                 ------------------------

           IN:                                      IN:
           ---                                      ---
        INFILTRATION =       73224.0000          INFILTRATION =       0.0000E+00

          OUT:                                     OUT:
          ----                                     ----
              UZF ET =       0.0000E+00                UZF ET =       0.0000E+00
        UZF RECHARGE =       73224.0000          UZF RECHARGE =       0.0000E+00

            IN - OUT =       0.0000E+00              IN - OUT =       0.0000E+00

          STORAGE:                                 STORAGE:
          --------                                 --------
      STORAGE CHANGE =       0.0000E+00        STORAGE CHANGE =       0.0000E+00

 PERCENT DISCREPANCY IS DIFFERENCE BETWEEN IN-OUT MINUS CHANGE IN STORAGE
 DIVIDED BY THE AVERAGE OF IN AND OUT TIMES 100

 PERCENT DISCREPANCY =           0.00     PERCENT DISCREPANCY =           0.00






1
  VOLUMETRIC BUDGET FOR ENTIRE MODEL AT END OF TIME STEP   30, STRESS PERIOD   3
  ------------------------------------------------------------------------------

     CUMULATIVE VOLUMES      L**3       RATES FOR THIS TIME STEP      L**3/T
     ------------------                 ------------------------

           IN:                                      IN:
           ---                                      ---
    AWU WELLS            =           0.0000      AWU WELLS            =           0.0000
    DIVERSION SEGMENTS   =           0.0000      DIVERSION SEGMENTS   =           0.0000
    GW IRRIGATION        =           0.0000      GW IRRIGATION        =           0.0000
    SW IRRIGATION        =           0.0000      SW IRRIGATION        =           0.0000
    EFFICIENCY FACTOR GW =           0.0000      EFFICIENCY FACTOR GW =           0.0000
    EFFICIENCY FACTOR SW =           0.0000      EFFICIENCY FACTOR SW =           0.0000

                TOTAL IN =           0.0000                  TOTAL IN =           0.0000

          OUT:                                     OUT:
          ----                                     ----
    AWU WELLS            =           0.0000      AWU WELLS            =           0.0000
    DIVERSION SEGMENTS   =           0.0000      DIVERSION SEGMENTS   =           0.0000
    GW IRRIGATION        =           0.0000      GW IRRIGATION        =           0.0000
    SW IRRIGATION        =           0.0000      SW IRRIGATION        =           0.0000
    EFFICIENCY FACTOR GW =           0.0000      EFFICIENCY FACTOR GW =           0.0000
    EFFICIENCY FACTOR SW =           0.0000      EFFICIENCY FACTOR SW =           0.0000

               TOTAL OUT =           0.0000                 TOTAL OUT =           0.0000

                IN - OUT =           0.0000                  IN - OUT =           0.0000

     PERCENT DISCREPANCY =           0.00         PERCENT DISCREPANCY =           0.00



1
  VOLUMETRIC BUDGET FOR ENTIRE MODEL AT END OF TIME STEP   30, STRESS PERIOD   3
  ------------------------------------------------------------------------------

     CUMULATIVE VOLUMES      L**3       RATES FOR THIS TIME STEP      L**3/T
     ------------------                 ------------------------

           IN:                                      IN:
           ---                                      ---
             STORAGE     =     3545806.5000               STORAGE     =           0.5233
       CONSTANT HEAD     =           0.0000         CONSTANT HEAD     =           0.0000
     HEAD DEP BOUNDS     =     1526798.5000       HEAD DEP BOUNDS     =           0.2858
      STREAM LEAKAGE     =    59157492.0000        STREAM LEAKAGE     =          12.3978
        UZF RECHARGE     =       73223.9531          UZF RECHARGE     =           0.0000
               GW ET     =           0.0000                 GW ET     =           0.0000
     SURFACE LEAKAGE     =           0.0000       SURFACE LEAKAGE     =           0.0000
    AWU WELLS            =           0.0000      AWU WELLS            =           0.0000

                TOTAL IN =    64303320.0000                  TOTAL IN =          13.2070

          OUT:                                     OUT:
          ----                                     ----
             STORAGE     =     6520068.0000               STORAGE     =           3.5394
       CONSTANT HEAD     =           0.0000         CONSTANT HEAD     =           0.0000
     HEAD DEP BOUNDS     =     1532967.6250       HEAD DEP BOUNDS     =           0.2893
      STREAM LEAKAGE     =    56113972.0000        STREAM LEAKAGE     =           9.3703
        UZF RECHARGE     =           0.0000          UZF RECHARGE     =           0.0000
               GW ET     =      138446.8438                 GW ET     =       1.0241E-02
     SURFACE LEAKAGE     =           0.0000       SURFACE LEAKAGE     =           0.0000
    AWU WELLS            =           0.0000      AWU WELLS            =           0.0000

               TOTAL OUT =    64305456.0000                 TOTAL OUT =          13.2092

                IN - OUT =       -2136.0000                  IN - OUT =      -2.1696E-03

     PERCENT DISCREPANCY =          -0.00         PERCENT DISCREPANCY =          -0.02






         TIME SUMMARY AT END OF TIME STEP   30 IN STRESS PERIOD    3
                    SECONDS     MINUTES      HOURS       DAYS        YEARS
                    -----------------------------------------------------------
   TIME STEP LENGTH  87600.      1460.0      24.333      1.0139     2.77588E-03
 STRESS PERIOD TIME 2.62800E+06  43800.      730.00      30.417     8.32763E-02
         TOTAL TIME 5.34240E+06  89040.      1484.0      61.833     0.16929    
1
1
                            STRESS PERIOD NO.    4, LENGTH =   2628000.    
                            -----------------------------------------------

                              NUMBER OF TIME STEPS =    30

                               MULTIPLIER FOR DELT =     1.000

                            INITIAL TIME STEP SIZE =   87600.00    

 REUSING NON-PARAMETER GHB CELLS FROM LAST STRESS PERIOD

      2 GHB CELLS

 REUSING STREAM SEGMENT DATA FROM LAST STRESS PERIOD



            AREAL INFILTRATION RATE
 READING ON UNIT   19 WITH FORMAT: (10F4.0)            

            1           2           3           4           5           6           7           8           9          10
 ........................................................................................................................
   1    0.000       0.000       0.000       0.000       0.000       0.000       0.000       0.000       0.000       0.000    
   2    0.000       0.000       0.000       0.000       0.000       0.000       0.000       0.000       0.000       0.000    
   3    0.000       0.000       0.000       0.000       0.000       0.000       0.000       0.000       0.000       0.000    
   4    0.000       0.000       0.000       0.000       0.000       0.000       0.000       0.000       0.000       0.000    
   5    0.000       0.000       0.000       0.000       0.000       0.000       0.000       0.000       0.000       0.000    
   6    0.000       0.000       0.000       0.000       0.000       0.000       0.000       0.000       0.000       0.000    
   7    0.000       0.000       0.000       0.000       0.000       0.000       0.000       0.000       0.000       0.000    
   8    0.000       0.000       0.000       0.000       0.000       0.000       0.000       0.000       0.000       0.000    
   9    0.000       0.000       0.000       0.000       0.000       0.000       0.000       0.000       0.000       0.000    
  10    0.000       0.000       0.000       0.000       0.000       0.000       0.000       0.000       0.000       0.000    
  11    0.000       0.000       0.000       0.000       0.000       0.000       0.000       0.000       0.000       0.000    
  12    0.000       0.000       0.000       0.000       0.000       0.000       0.000       0.000       0.000       0.000    
  13    0.000       0.000       0.000       0.000       0.000       0.000       0.000       0.000       0.000       0.000    
  14    0.000       0.000       0.000       0.000       0.000       0.000       0.000       0.000       0.000       0.000    
  15    0.000       0.000       0.000       0.000       0.000       0.000       0.000       0.000       0.000       0.000    

                  ET RATE =  1.000000E-10

 USING ET EXTINCTION DEPTH FROM PREVIOUS STRESS PERIOD. CURRENT PERIOD IS:       4

 USING EXTINCTION WATER CONTENT FROM PREVIOUS STRESS PERIOD. CURRENT PERIOD IS:       4

 PROCESSING AWU STRESS PERIOD DATA

 READING AWU STRESS PERIOD DATA

 READING IRRIGATION WELL

 END PROCESSING AWU STRESS PERIOD DATA OPTIONS
 
 SOLVING FOR HEAD 
                                                   Max.-Head-Change                         Max.-Flux-Residual
  Residual-Control   Outer-Iter.   Inner-Iter.     Column Row Layer    Maximum-Head-Change  Column Row Layer    Maximum-Flux-Residual          L2-NORM 
          0                 1           2             2   13     1       0.7534246114E-02       4   13    1         0.4313111126E+00      0.9472584480E+00
          0                 2           2             4   13     1      -0.7374172769E-03       4   13    1        -0.4265920075E-01      0.9278976795E-01
          0                 3           1             4   13     1       0.6496042352E-04       4   13    1         0.3792795717E-02      0.8166989932E-02

    ------------------------------------------------
       NWT REQUIRED            3 OUTER ITERATIONS 
       AND A TOTAL OF          5 INNER ITERATIONS.
    ------------------------------------------------

 NO OUTPUT CONTROL FOR STRESS PERIOD    4   TIME STEP    1
 
 SOLVING FOR HEAD 
                                                   Max.-Head-Change                         Max.-Flux-Residual
  Residual-Control   Outer-Iter.   Inner-Iter.     Column Row Layer    Maximum-Head-Change  Column Row Layer    Maximum-Flux-Residual          L2-NORM 
          0                 1           2             2   13     1       0.6966743071E-02       2   13    1         0.3929225868E+00      0.8971535494E+00
          0                 2           2             4   13     1      -0.6696999490E-03       4   13    1        -0.3871088788E-01      0.8797366542E-01
          0                 3           1             4   13     1       0.5898863552E-04       4   13    1         0.3441312009E-02      0.7753353853E-02

    ------------------------------------------------
       NWT REQUIRED            3 OUTER ITERATIONS 
       AND A TOTAL OF          5 INNER ITERATIONS.
    ------------------------------------------------

 NO OUTPUT CONTROL FOR STRESS PERIOD    4   TIME STEP    2
 
 SOLVING FOR HEAD 
                                                   Max.-Head-Change                         Max.-Flux-Residual
  Residual-Control   Outer-Iter.   Inner-Iter.     Column Row Layer    Maximum-Head-Change  Column Row Layer    Maximum-Flux-Residual          L2-NORM 
          0                 1           2             2   13     1       0.6442729013E-02       2   13    1         0.3633189616E+00      0.8522388542E+00
          0                 2           2             2   13     1      -0.6097556662E-03       4   13    1        -0.3515475788E-01      0.8365619820E-01
          0                 3           1             4   13     1       0.5359982952E-04       4   13    1         0.3124343478E-02      0.7379569468E-02

    ------------------------------------------------
       NWT REQUIRED            3 OUTER ITERATIONS 
       AND A TOTAL OF          5 INNER ITERATIONS.
    ------------------------------------------------

 NO OUTPUT CONTROL FOR STRESS PERIOD    4   TIME STEP    3
 
 SOLVING FOR HEAD 
                                                   Max.-Head-Change                         Max.-Flux-Residual
  Residual-Control   Outer-Iter.   Inner-Iter.     Column Row Layer    Maximum-Head-Change  Column Row Layer    Maximum-Flux-Residual          L2-NORM 
          0                 1           2             2   13     1       0.5958723385E-02       2   13    1         0.3359772681E+00      0.8119932224E+00
          0                 2           2             2   13     1      -0.5641195726E-03       2   13    1        -0.3209489053E-01      0.7979274722E-01
          0                 3           1             4   13     1       0.4876089151E-04       4   13    1         0.2839789958E-02      0.7047922626E-02

    ------------------------------------------------
       NWT REQUIRED            3 OUTER ITERATIONS 
       AND A TOTAL OF          5 INNER ITERATIONS.
    ------------------------------------------------

 NO OUTPUT CONTROL FOR STRESS PERIOD    4   TIME STEP    4
 
 SOLVING FOR HEAD 
                                                   Max.-Head-Change                         Max.-Flux-Residual
  Residual-Control   Outer-Iter.   Inner-Iter.     Column Row Layer    Maximum-Head-Change  Column Row Layer    Maximum-Flux-Residual          L2-NORM 
          0                 1           2             2   13     1       0.5511765895E-02       2   13    1         0.3107301146E+00      0.7759471293E+00
          0                 2           2             2    2     1      -0.5253188149E-03       2   13    1        -0.2969180713E-01      0.7633429604E-01
          0                 3           1             2    2     1       0.4684927615E-04       4   13    1         0.2582477536E-02      0.6749467657E-02

    ------------------------------------------------
       NWT REQUIRED            3 OUTER ITERATIONS 
       AND A TOTAL OF          5 INNER ITERATIONS.
    ------------------------------------------------

 NO OUTPUT CONTROL FOR STRESS PERIOD    4   TIME STEP    5
 
 SOLVING FOR HEAD 
                                                   Max.-Head-Change                         Max.-Flux-Residual
  Residual-Control   Outer-Iter.   Inner-Iter.     Column Row Layer    Maximum-Head-Change  Column Row Layer    Maximum-Flux-Residual          L2-NORM 
          0                 1           2             2    2     1       0.5266310937E-02       2   13    1         0.2874169177E+00      0.7436623889E+00
          0                 2           2             2    2     1      -0.5218446675E-03       2    2    1        -0.2752656713E-01      0.7323915597E-01
          0                 3           1             2    2     1       0.4653944298E-04       2    2    1         0.2477390633E-02      0.6485214108E-02

    ------------------------------------------------
       NWT REQUIRED            3 OUTER ITERATIONS 
       AND A TOTAL OF          5 INNER ITERATIONS.
    ------------------------------------------------

 NO OUTPUT CONTROL FOR STRESS PERIOD    4   TIME STEP    6
 
 SOLVING FOR HEAD 
                                                   Max.-Head-Change                         Max.-Flux-Residual
  Residual-Control   Outer-Iter.   Inner-Iter.     Column Row Layer    Maximum-Head-Change  Column Row Layer    Maximum-Flux-Residual          L2-NORM 
          0                 1           2             2    2     1       0.5231660403E-02       2    2    1         0.2734411775E+00      0.7147449854E+00
          0                 2           2             2    2     1      -0.5184110935E-03       2    2    1        -0.2734418921E-01      0.7046622521E-01
          0                 3           1             2    2     1       0.4623322804E-04       2    2    1         0.2460976621E-02      0.6246639296E-02

    ------------------------------------------------
       NWT REQUIRED            3 OUTER ITERATIONS 
       AND A TOTAL OF          5 INNER ITERATIONS.
    ------------------------------------------------

 NO OUTPUT CONTROL FOR STRESS PERIOD    4   TIME STEP    7
 
 SOLVING FOR HEAD 
                                                   Max.-Head-Change                         Max.-Flux-Residual
  Residual-Control   Outer-Iter.   Inner-Iter.     Column Row Layer    Maximum-Head-Change  Column Row Layer    Maximum-Flux-Residual          L2-NORM 
          0                 1           2             2    2     1       0.5197498682E-02       2    2    1         0.2716432127E+00      0.6888389820E+00
          0                 2           2             2    2     1      -0.5150259573E-03       2    2    1        -0.2716439143E-01      0.6798541394E-01
          0                 3           1             2    2     1       0.4593133296E-04       2    2    1         0.2444794833E-02      0.6033651662E-02

    ------------------------------------------------
       NWT REQUIRED            3 OUTER ITERATIONS 
       AND A TOTAL OF          5 INNER ITERATIONS.
    ------------------------------------------------

 NO OUTPUT CONTROL FOR STRESS PERIOD    4   TIME STEP    8
 
 SOLVING FOR HEAD 
                                                   Max.-Head-Change                         Max.-Flux-Residual
  Residual-Control   Outer-Iter.   Inner-Iter.     Column Row Layer    Maximum-Head-Change  Column Row Layer    Maximum-Flux-Residual          L2-NORM 
          0                 1           2             2    2     1       0.5163731165E-02       2    2    1         0.2698660562E+00      0.6656086034E+00
          0                 2           2             2    2     1      -0.5116798837E-03       2    2    1        -0.2698667450E-01      0.6576064456E-01
          0                 3           1             2    2     1       0.4563292177E-04       2    2    1         0.2428800317E-02      0.5843489189E-02

    ------------------------------------------------
       NWT REQUIRED            3 OUTER ITERATIONS 
       AND A TOTAL OF          5 INNER ITERATIONS.
    ------------------------------------------------

 NO OUTPUT CONTROL FOR STRESS PERIOD    4   TIME STEP    9
 
 SOLVING FOR HEAD 
                                                   Max.-Head-Change                         Max.-Flux-Residual
  Residual-Control   Outer-Iter.   Inner-Iter.     Column Row Layer    Maximum-Head-Change  Column Row Layer    Maximum-Flux-Residual          L2-NORM 
          0                 1           2             2    2     1       0.5130525377E-02       2    2    1         0.2681184654E+00      0.6447744731E+00
          0                 2           2             2    2     1      -0.5083894722E-03       2    2    1        -0.2681191415E-01      0.6376470383E-01
          0                 3           1             2    2     1       0.4533947437E-04       2    2    1         0.2413071887E-02      0.5671737853E-02

    ------------------------------------------------
       NWT REQUIRED            3 OUTER ITERATIONS 
       AND A TOTAL OF          5 INNER ITERATIONS.
    ------------------------------------------------

 NO OUTPUT CONTROL FOR STRESS PERIOD    4   TIME STEP   10
 
 SOLVING FOR HEAD 
                                                   Max.-Head-Change                         Max.-Flux-Residual
  Residual-Control   Outer-Iter.   Inner-Iter.     Column Row Layer    Maximum-Head-Change  Column Row Layer    Maximum-Flux-Residual          L2-NORM 
          0                 1           2             2    2     1       0.5097698790E-02       2    2    1         0.2663909106E+00      0.6260669918E+00
          0                 2           2             2    2     1      -0.5051366377E-03       2    2    1        -0.2663915748E-01      0.6197151060E-01
          0                 3           1             2    2     1       0.4504937874E-04       2    2    1         0.2397523818E-02      0.5517902485E-02

    ------------------------------------------------
       NWT REQUIRED            3 OUTER ITERATIONS 
       AND A TOTAL OF          5 INNER ITERATIONS.
    ------------------------------------------------

 NO OUTPUT CONTROL FOR STRESS PERIOD    4   TIME STEP   11
 
 SOLVING FOR HEAD 
                                                   Max.-Head-Change                         Max.-Flux-Residual
  Residual-Control   Outer-Iter.   Inner-Iter.     Column Row Layer    Maximum-Head-Change  Column Row Layer    Maximum-Flux-Residual          L2-NORM 
          0                 1           2             2    2     1       0.5065331656E-02       2    2    1         0.2646875876E+00      0.6092414269E+00
          0                 2           2             2    2     1      -0.5019293305E-03       2    2    1        -0.2646882398E-01      0.6036021573E-01
          0                 3           1             2    2     1       0.4476334313E-04       2    2    1         0.2382193818E-02      0.5378900686E-02

    ------------------------------------------------
       NWT REQUIRED            3 OUTER ITERATIONS 
       AND A TOTAL OF          5 INNER ITERATIONS.
    ------------------------------------------------

 NO OUTPUT CONTROL FOR STRESS PERIOD    4   TIME STEP   12
 
 SOLVING FOR HEAD 
                                                   Max.-Head-Change                         Max.-Flux-Residual
  Residual-Control   Outer-Iter.   Inner-Iter.     Column Row Layer    Maximum-Head-Change  Column Row Layer    Maximum-Flux-Residual          L2-NORM 
          0                 1           2             2    2     1       0.5033416982E-02       2    2    1         0.2630081048E+00      0.5940873489E+00
          0                 2           2             2    2     1      -0.4987668586E-03       2    2    1        -0.2630087454E-01      0.5890789830E-01
          0                 3           1             2    2     1       0.4448130567E-04       2    2    1         0.2367078380E-02      0.5254711726E-02

    ------------------------------------------------
       NWT REQUIRED            3 OUTER ITERATIONS 
       AND A TOTAL OF          5 INNER ITERATIONS.
    ------------------------------------------------

 NO OUTPUT CONTROL FOR STRESS PERIOD    4   TIME STEP   13
 
 SOLVING FOR HEAD 
                                                   Max.-Head-Change                         Max.-Flux-Residual
  Residual-Control   Outer-Iter.   Inner-Iter.     Column Row Layer    Maximum-Head-Change  Column Row Layer    Maximum-Flux-Residual          L2-NORM 
          0                 1           2             2    2     1       0.5001860784E-02       2    2    1         0.2613475433E+00      0.5804191358E+00
          0                 2           2             2    2     1      -0.4956399089E-03       2    2    1        -0.2613481726E-01      0.5759751584E-01
          0                 3           1             2    2     1       0.4420243677E-04       2    2    1         0.2352133240E-02      0.5141874295E-02

    ------------------------------------------------
       NWT REQUIRED            3 OUTER ITERATIONS 
       AND A TOTAL OF          5 INNER ITERATIONS.
    ------------------------------------------------

 NO OUTPUT CONTROL FOR STRESS PERIOD    4   TIME STEP   14
 
 SOLVING FOR HEAD 
                                                   Max.-Head-Change                         Max.-Flux-Residual
  Residual-Control   Outer-Iter.   Inner-Iter.     Column Row Layer    Maximum-Head-Change  Column Row Layer    Maximum-Flux-Residual          L2-NORM 
          0                 1           2             2    2     1       0.4970830799E-02       2    2    1         0.2597146952E+00      0.5680627720E+00
          0                 2           2             2    2     1      -0.4925651019E-03       2    2    1        -0.2597153133E-01      0.5641060540E-01
          0                 3           1             2    2     1       0.4392821755E-04       2    2    1         0.2337437510E-02      0.5039954691E-02

    ------------------------------------------------
       NWT REQUIRED            3 OUTER ITERATIONS 
       AND A TOTAL OF          5 INNER ITERATIONS.
    ------------------------------------------------

 NO OUTPUT CONTROL FOR STRESS PERIOD    4   TIME STEP   15
 
 SOLVING FOR HEAD 
                                                   Max.-Head-Change                         Max.-Flux-Residual
  Residual-Control   Outer-Iter.   Inner-Iter.     Column Row Layer    Maximum-Head-Change  Column Row Layer    Maximum-Flux-Residual          L2-NORM 
          0                 1           2             2    2     1       0.4940145105E-02       2    2    1         0.2581000386E+00      0.5568700487E+00
          0                 2           2             2    2     1      -0.4895244120E-03       2    2    1        -0.2581006459E-01      0.5533560978E-01
          0                 3           1             2    2     1       0.4365704090E-04       2    2    1         0.2322905509E-02      0.4947391128E-02

    ------------------------------------------------
       NWT REQUIRED            3 OUTER ITERATIONS 
       AND A TOTAL OF          5 INNER ITERATIONS.
    ------------------------------------------------

 NO OUTPUT CONTROL FOR STRESS PERIOD    4   TIME STEP   16
 
 SOLVING FOR HEAD 
                                                   Max.-Head-Change                         Max.-Flux-Residual
  Residual-Control   Outer-Iter.   Inner-Iter.     Column Row Layer    Maximum-Head-Change  Column Row Layer    Maximum-Flux-Residual          L2-NORM 
          0                 1           2             2    2     1       0.4909884578E-02       2    2    1         0.2565078032E+00      0.5467011547E+00
          0                 2           2             2    2     1      -0.4865258529E-03       2    2    1        -0.2565084001E-01      0.5435819787E-01
          0                 3           1             2    2     1       0.4338962221E-04       2    2    1         0.2308575312E-02      0.4862846645E-02

    ------------------------------------------------
       NWT REQUIRED            3 OUTER ITERATIONS 
       AND A TOTAL OF          5 INNER ITERATIONS.
    ------------------------------------------------

 NO OUTPUT CONTROL FOR STRESS PERIOD    4   TIME STEP   17
 
 SOLVING FOR HEAD 
                                                   Max.-Head-Change                         Max.-Flux-Residual
  Residual-Control   Outer-Iter.   Inner-Iter.     Column Row Layer    Maximum-Head-Change  Column Row Layer    Maximum-Flux-Residual          L2-NORM 
          0                 1           2             2    2     1       0.4879955325E-02       2    2    1         0.2549330721E+00      0.5374397606E+00
          0                 2           2             2    2     1      -0.4835601199E-03       2    2    1        -0.2549336587E-01      0.5346692148E-01
          0                 3           1             2    2     1       0.4312513042E-04       2    2    1         0.2294402633E-02      0.4785942022E-02

    ------------------------------------------------
       NWT REQUIRED            3 OUTER ITERATIONS 
       AND A TOTAL OF          5 INNER ITERATIONS.
    ------------------------------------------------

 NO OUTPUT CONTROL FOR STRESS PERIOD    4   TIME STEP   18
 
 SOLVING FOR HEAD 
                                                   Max.-Head-Change                         Max.-Flux-Residual
  Residual-Control   Outer-Iter.   Inner-Iter.     Column Row Layer    Maximum-Head-Change  Column Row Layer    Maximum-Flux-Residual          L2-NORM 
          0                 1           2             2    2     1       0.4850526328E-02       2    2    1         0.2533846442E+00      0.5289867235E+00
          0                 2           2             2    2     1      -0.4806439578E-03       2    2    1        -0.2533852206E-01      0.5265202433E-01
          0                 3           1             2    2     1       0.4286505942E-04       2    2    1         0.2280466698E-02      0.4715424854E-02

    ------------------------------------------------
       NWT REQUIRED            3 OUTER ITERATIONS 
       AND A TOTAL OF          5 INNER ITERATIONS.
    ------------------------------------------------

 NO OUTPUT CONTROL FOR STRESS PERIOD    4   TIME STEP   19
 
 SOLVING FOR HEAD 
                                                   Max.-Head-Change                         Max.-Flux-Residual
  Residual-Control   Outer-Iter.   Inner-Iter.     Column Row Layer    Maximum-Head-Change  Column Row Layer    Maximum-Flux-Residual          L2-NORM 
          0                 1           2             2    2     1       0.4821415715E-02       2    2    1         0.2518530597E+00      0.5212432763E+00
          0                 2           2             2    2     1      -0.4777593457E-03       2    2    1        -0.2518536262E-01      0.5190472560E-01
          0                 3           1             2    2     1       0.4260780285E-04       2    2    1         0.2266682354E-02      0.4650845320E-02

    ------------------------------------------------
       NWT REQUIRED            3 OUTER ITERATIONS 
       AND A TOTAL OF          5 INNER ITERATIONS.
    ------------------------------------------------

 NO OUTPUT CONTROL FOR STRESS PERIOD    4   TIME STEP   20
 
 SOLVING FOR HEAD 
                                                   Max.-Head-Change                         Max.-Flux-Residual
  Residual-Control   Outer-Iter.   Inner-Iter.     Column Row Layer    Maximum-Head-Change  Column Row Layer    Maximum-Flux-Residual          L2-NORM 
          0                 1           2             2    2     1       0.4792705191E-02       2    2    1         0.2503425528E+00      0.5141361880E+00
          0                 2           2             2    2     1      -0.4749143788E-03       2    2    1        -0.2503431097E-01      0.5121760304E-01
          0                 3           1             2    2     1       0.4235408174E-04       2    2    1         0.2253087724E-02      0.4591191859E-02

    ------------------------------------------------
       NWT REQUIRED            3 OUTER ITERATIONS 
       AND A TOTAL OF          5 INNER ITERATIONS.
    ------------------------------------------------

 NO OUTPUT CONTROL FOR STRESS PERIOD    4   TIME STEP   21
 
 SOLVING FOR HEAD 
                                                   Max.-Head-Change                         Max.-Flux-Residual
  Residual-Control   Outer-Iter.   Inner-Iter.     Column Row Layer    Maximum-Head-Change  Column Row Layer    Maximum-Flux-Residual          L2-NORM 
          0                 1           2             2    2     1       0.4764301287E-02       2    2    1         0.2488482483E+00      0.5075840138E+00
          0                 2           2             2    2     1      -0.4720997959E-03       2    2    1        -0.2488487959E-01      0.5058394309E-01
          0                 3           1             2    2     1       0.4210306969E-04       2    2    1         0.2239638906E-02      0.4535929505E-02

    ------------------------------------------------
       NWT REQUIRED            3 OUTER ITERATIONS 
       AND A TOTAL OF          5 INNER ITERATIONS.
    ------------------------------------------------

 NO OUTPUT CONTROL FOR STRESS PERIOD    4   TIME STEP   22
 
 SOLVING FOR HEAD 
                                                   Max.-Head-Change                         Max.-Flux-Residual
  Residual-Control   Outer-Iter.   Inner-Iter.     Column Row Layer    Maximum-Head-Change  Column Row Layer    Maximum-Flux-Residual          L2-NORM 
          0                 1           2             2    2     1       0.4736373017E-02       2    2    1         0.2473789690E+00      0.5015360597E+00
          0                 2           2             2    2     1      -0.4693323434E-03       2    2    1        -0.2473795071E-01      0.4999807826E-01
          0                 3           1             2    2     1       0.4185626109E-04       2    2    1         0.2226415303E-02      0.4485036876E-02

    ------------------------------------------------
       NWT REQUIRED            3 OUTER ITERATIONS 
       AND A TOTAL OF          5 INNER ITERATIONS.
    ------------------------------------------------

 NO OUTPUT CONTROL FOR STRESS PERIOD    4   TIME STEP   23
 
 SOLVING FOR HEAD 
                                                   Max.-Head-Change                         Max.-Flux-Residual
  Residual-Control   Outer-Iter.   Inner-Iter.     Column Row Layer    Maximum-Head-Change  Column Row Layer    Maximum-Flux-Residual          L2-NORM 
          0                 1           2             2    2     1       0.4708739319E-02       2    2    1         0.2459252543E+00      0.4959304224E+00
          0                 2           2             2    2     1      -0.4665940816E-03       2    2    1        -0.2459257835E-01      0.4945387631E-01
          0                 3           1             2    2     1       0.4161205621E-04       2    2    1         0.2213331816E-02      0.4437710051E-02

    ------------------------------------------------
       NWT REQUIRED            3 OUTER ITERATIONS 
       AND A TOTAL OF          5 INNER ITERATIONS.
    ------------------------------------------------

 NO OUTPUT CONTROL FOR STRESS PERIOD    4   TIME STEP   24
 
 SOLVING FOR HEAD 
                                                   Max.-Head-Change                         Max.-Flux-Residual
  Residual-Control   Outer-Iter.   Inner-Iter.     Column Row Layer    Maximum-Head-Change  Column Row Layer    Maximum-Flux-Residual          L2-NORM 
          0                 1           2             2    2     1       0.4681481913E-02       2    2    1         0.2444913821E+00      0.4907140951E+00
          0                 2           2             2    2     1      -0.4638931068E-03       2    2    1        -0.2444919026E-01      0.4894711832E-01
          0                 3           1             2    2     1       0.4137117656E-04       2    2    1         0.2200426887E-02      0.4393475227E-02

    ------------------------------------------------
       NWT REQUIRED            3 OUTER ITERATIONS 
       AND A TOTAL OF          5 INNER ITERATIONS.
    ------------------------------------------------

 NO OUTPUT CONTROL FOR STRESS PERIOD    4   TIME STEP   25
 
 SOLVING FOR HEAD 
                                                   Max.-Head-Change                         Max.-Flux-Residual
  Residual-Control   Outer-Iter.   Inner-Iter.     Column Row Layer    Maximum-Head-Change  Column Row Layer    Maximum-Flux-Residual          L2-NORM 
          0                 1           2             2    2     1       0.4654595236E-02       2    2    1         0.2430770352E+00      0.4858579645E+00
          0                 2           2             2    2     1      -0.4612288683E-03       2    2    1        -0.2430775473E-01      0.4847442789E-01
          0                 3           1             2    2     1       0.4113357254E-04       2    2    1         0.2187697676E-02      0.4352223233E-02

    ------------------------------------------------
       NWT REQUIRED            3 OUTER ITERATIONS 
       AND A TOTAL OF          5 INNER ITERATIONS.
    ------------------------------------------------

 NO OUTPUT CONTROL FOR STRESS PERIOD    4   TIME STEP   26
 
 SOLVING FOR HEAD 
                                                   Max.-Head-Change                         Max.-Flux-Residual
  Residual-Control   Outer-Iter.   Inner-Iter.     Column Row Layer    Maximum-Head-Change  Column Row Layer    Maximum-Flux-Residual          L2-NORM 
          0                 1           2             2    2     1       0.4628073412E-02       2    2    1         0.2416819249E+00      0.4813209536E+00
          0                 2           2             2    2     1      -0.4586007842E-03       2    2    1        -0.2416824286E-01      0.4803395231E-01
          0                 3           1             2    2     1       0.4089919405E-04       2    2    1         0.2175141648E-02      0.4313994427E-02

    ------------------------------------------------
       NWT REQUIRED            3 OUTER ITERATIONS 
       AND A TOTAL OF          5 INNER ITERATIONS.
    ------------------------------------------------

 NO OUTPUT CONTROL FOR STRESS PERIOD    4   TIME STEP   27
 
 SOLVING FOR HEAD 
                                                   Max.-Head-Change                         Max.-Flux-Residual
  Residual-Control   Outer-Iter.   Inner-Iter.     Column Row Layer    Maximum-Head-Change  Column Row Layer    Maximum-Flux-Residual          L2-NORM 
          0                 1           2             2    2     1       0.4601823551E-02       2    2    1         0.2403011878E+00      0.4770564940E+00
          0                 2           2             2    2     1      -0.4559996486E-03       2    2    1        -0.2403016832E-01      0.4761615834E-01
          0                 3           1             2    2     1       0.4066721788E-04       2    2    1         0.2162714930E-02      0.4277186389E-02

    ------------------------------------------------
       NWT REQUIRED            3 OUTER ITERATIONS 
       AND A TOTAL OF          5 INNER ITERATIONS.
    ------------------------------------------------

 NO OUTPUT CONTROL FOR STRESS PERIOD    4   TIME STEP   28
 
 SOLVING FOR HEAD 
                                                   Max.-Head-Change                         Max.-Flux-Residual
  Residual-Control   Outer-Iter.   Inner-Iter.     Column Row Layer    Maximum-Head-Change  Column Row Layer    Maximum-Flux-Residual          L2-NORM 
          0                 1           2             2    2     1       0.4685984478E-02       2    2    1         0.2446969950E+00      0.4674083297E+00
          0                 2           2             2    2     1      -0.4643392608E-03       2    2    1        -0.2446975094E-01      0.4672966658E-01
          0                 3           1             2    2     1       0.4141096596E-04       2    2    1         0.2202277359E-02      0.4204676706E-02

    ------------------------------------------------
       NWT REQUIRED            3 OUTER ITERATIONS 
       AND A TOTAL OF          5 INNER ITERATIONS.
    ------------------------------------------------

 NO OUTPUT CONTROL FOR STRESS PERIOD    4   TIME STEP   29
 
 SOLVING FOR HEAD 
                                                   Max.-Head-Change                         Max.-Flux-Residual
  Residual-Control   Outer-Iter.   Inner-Iter.     Column Row Layer    Maximum-Head-Change  Column Row Layer    Maximum-Flux-Residual          L2-NORM 
          0                 1           2             2    2     1       0.8011656993E-02       2    2    1         0.4186806188E+00      0.1006821087E+01
          0                 2           2             2    2     1      -0.7938849452E-03       2    2    1        -0.4186822794E-01      0.9934842629E-01
          0                 3           1             2    2     1       0.7080068262E-04       2    2    1         0.3768139346E-02      0.8815732865E-02

    ------------------------------------------------
       NWT REQUIRED            3 OUTER ITERATIONS 
       AND A TOTAL OF          5 INNER ITERATIONS.
    ------------------------------------------------

 NO OUTPUT CONTROL FOR STRESS PERIOD    4   TIME STEP   30



 STREAM LISTING     PERIOD      4   STEP       30

 LAYER ROW COL. STREAM  RCH.  FLOW INTO     FLOW TO   FLOW OUT OF   OVRLND.     DIRECT     STREAM       STREAM     STREAM     STREAM   STREAMBED  STREAMBED
                SEG.NO.  NO.  STRM. RCH.    AQUIFER    STRM. RCH.    RUNOFF     PRECIP       ET          HEAD       DEPTH      WIDTH   CONDCTNC.   GRADIENT

   1    1    1     1     1    7.7000E+01  4.2703E-01   7.6573E+01  0.000E+00  0.000E+00  0.000E+00  1.09476E+03  1.708E+00  2.016E+01  9.070E-02  1.569E+00
   1    2    2     1     2    7.6573E+01  6.6237E-01   7.5911E+01  0.000E+00  0.000E+00  0.000E+00  1.08976E+03  1.706E+00  2.011E+01  1.408E-01  1.569E+00
   1    3    3     1     3    7.5911E+01  5.6590E-01   7.5345E+01  0.000E+00  0.000E+00  0.000E+00  1.08412E+03  1.703E+00  2.006E+01  1.203E-01  1.568E+00
   1    3    4     1     4    7.5345E+01  5.2193E-01   7.4823E+01  0.000E+00  0.000E+00  0.000E+00  1.07911E+03  1.700E+00  2.001E+01  1.110E-01  1.567E+00
   1    4    5     2     1    7.2823E+01  4.1259E-01   7.2410E+01  0.000E+00  0.000E+00  0.000E+00  1.07422E+03  2.290E+00  1.200E+01  7.800E-02  1.763E+00
   1    5    6     2     2    7.2410E+01  3.1696E-01   7.2093E+01  0.000E+00  0.000E+00  0.000E+00  1.06879E+03  2.283E+00  1.200E+01  6.000E-02  1.761E+00
   1    6    6     2     3    7.2093E+01  3.1660E-01   7.1777E+01  0.000E+00  0.000E+00  0.000E+00  1.06407E+03  2.277E+00  1.200E+01  6.000E-02  1.759E+00
   1    7    6     2     4    7.1777E+01  3.1624E-01   7.1460E+01  0.000E+00  0.000E+00  0.000E+00  1.05935E+03  2.271E+00  1.200E+01  6.000E-02  1.757E+00
   1    8    6     2     5    7.1460E+01  3.1588E-01   7.1144E+01  0.000E+00  0.000E+00  0.000E+00  1.05462E+03  2.265E+00  1.200E+01  6.000E-02  1.755E+00
   1    3    5     3     1    2.0000E+00  2.8252E-01   1.7175E+00  0.000E+00  0.000E+00  0.000E+00  1.07555E+03  1.909E+00  9.636E+00  7.227E-02  1.955E+00
   1    3    6     3     2    1.7175E+00  2.4905E-01   1.4684E+00  0.000E+00  0.000E+00  0.000E+00  1.07264E+03  1.727E+00  8.909E+00  6.682E-02  1.864E+00
   1    3    7     3     3    1.4684E+00  1.9718E-01   1.2712E+00  0.000E+00  0.000E+00  0.000E+00  1.06987E+03  1.555E+00  8.218E+00  5.547E-02  1.777E+00
   1    4    8     3     4    1.2712E+00  2.2567E-01   1.0456E+00  0.000E+00  0.000E+00  0.000E+00  1.06682E+03  1.364E+00  7.455E+00  6.709E-02  1.682E+00
   1    5    8     3     5    1.0456E+00  1.5790E-01   8.8768E-01  0.000E+00  0.000E+00  0.000E+00  1.06362E+03  1.164E+00  6.655E+00  4.991E-02  1.582E+00
   1    6    8     3     6    8.8768E-01  5.5980E-02   8.3170E-01  0.000E+00  0.000E+00  0.000E+00  1.06158E+03  1.036E+00  6.145E+00  1.844E-02  1.518E+00
   1    5   10     4     1    1.0000E+01  9.0919E-02   9.9091E+00  0.000E+00  0.000E+00  0.000E+00  1.07836E+03  6.368E-01  1.000E+01  2.500E-02  1.212E+00
   1    5    9     4     2    9.9091E+00  1.8158E-01   9.7275E+00  0.000E+00  0.000E+00  0.000E+00  1.07154E+03  6.315E-01  1.000E+01  5.000E-02  1.211E+00
   1    6    8     4     3    9.7275E+00  1.2689E-01   9.6006E+00  0.000E+00  0.000E+00  0.000E+00  1.06381E+03  6.256E-01  1.000E+01  3.500E-02  1.209E+00
   1    6    8     5     1    1.0432E+01  2.2686E-01   1.0205E+01  0.000E+00  0.000E+00  0.000E+00  1.05868E+03  6.790E-01  1.542E+01  6.166E-02  1.226E+00
   1    7    7     5     2    1.0205E+01  2.7894E-01   9.9265E+00  0.000E+00  0.000E+00  0.000E+00  1.05417E+03  6.732E-01  1.519E+01  7.594E-02  1.224E+00
   1    8    7     5     3    9.9265E+00  1.9221E-01   9.7343E+00  0.000E+00  0.000E+00  0.000E+00  1.04992E+03  6.676E-01  1.497E+01  5.241E-02  1.223E+00
   1    8    6     5     4    9.7343E+00  1.3577E-01   9.5985E+00  0.000E+00  0.000E+00  0.000E+00  1.04691E+03  6.637E-01  1.482E+01  3.706E-02  1.221E+00
   1    9    6     6     1    6.0743E+01  3.0461E-01   6.0438E+01  0.000E+00  0.000E+00  0.000E+00  1.04480E+03  2.077E+00  1.200E+01  6.000E-02  1.692E+00
   1   10    7     6     2    6.0438E+01  3.0424E-01   6.0134E+01  0.000E+00  0.000E+00  0.000E+00  1.04025E+03  2.071E+00  1.200E+01  6.000E-02  1.690E+00
   1   11    7     6     3    6.0134E+01  3.0386E-01   5.9830E+01  0.000E+00  0.000E+00  0.000E+00  1.03570E+03  2.064E+00  1.200E+01  6.000E-02  1.688E+00
   1   12    7     6     4    5.9830E+01  3.0348E-01   5.9527E+01  0.000E+00  0.000E+00  0.000E+00  1.03115E+03  2.058E+00  1.200E+01  6.000E-02  1.686E+00
   1   13    7     6     5    5.9527E+01  2.0714E-02   5.9506E+01  0.000E+00  0.000E+00  0.000E+00  1.02796E+03  2.055E+00  1.200E+01  2.400E-02  2.877E-01
   1   14    9     7     1    1.5000E+02  1.3374E+00   1.4866E+02  0.000E+00  0.000E+00  0.000E+00  1.03987E+03  2.288E+00  5.529E+01  5.593E-01  7.971E-01
   1   13    8     7     2    1.4866E+02  1.8348E+00   1.4683E+02  0.000E+00  0.000E+00  0.000E+00  1.03478E+03  2.279E+00  5.526E+01  6.148E-01  9.948E-01
   1   13    7     7     3    1.4683E+02  1.4459E+00   1.4538E+02  0.000E+00  0.000E+00  0.000E+00  1.02969E+03  2.271E+00  5.522E+01  5.585E-01  8.630E-01
   1   13    6     8     1    2.0489E+02  1.0431E+00   2.0384E+02  0.000E+00  0.000E+00  0.000E+00  1.02504E+03  3.163E+00  4.587E+01  4.674E-01  7.439E-01
   1   13    5     8     2    2.0384E+02  2.3472E-01   2.0361E+02  0.000E+00  0.000E+00  0.000E+00  1.01878E+03  3.160E+00  4.581E+01  4.669E-01  1.676E-01
   1   13    4     8     3    2.0361E+02 -2.1637E+00   2.0577E+02  0.000E+00  0.000E+00  0.000E+00  1.01254E+03  3.165E+00  4.589E+01  4.677E+00 -1.542E-01
   1   13    3     8     4    2.0577E+02 -3.3695E+00   2.0914E+02  0.000E+00  0.000E+00  0.000E+00  1.00631E+03  3.181E+00  4.613E+01  4.700E+00 -2.389E-01
   1   13    2     8     5    2.0914E+02 -2.2246E+00   2.1137E+02  0.000E+00  0.000E+00  0.000E+00  1.00007E+03  3.197E+00  4.636E+01  4.724E+00 -1.570E-01
   1   13    1     8     6    2.1137E+02 -1.7390E+00   2.1311E+02  0.000E+00  0.000E+00  0.000E+00  9.95083E+02  3.208E+00  4.652E+01  2.844E+00 -2.038E-01
   1    6    8     9     1    2.0000E+01  0.0000E+00   2.0000E+01  0.000E+00  0.000E+00  0.000E+00  1.07932E+03  8.168E-01  4.000E+00  0.000E+00  1.272E+00





UNSATURATED ZONE PACKAGE VOLUMETRIC BUDGET FOR  TIME STEP    30 STRESS PERIOD    4
  ------------------------------------------------------------------------------



     CUMULATIVE VOLUMES      L**3       RATES FOR THIS TIME STEP      L**3/T
     ------------------                 ------------------------

           IN:                                      IN:
           ---                                      ---
        INFILTRATION =       73224.0000          INFILTRATION =       0.0000E+00

          OUT:                                     OUT:
          ----                                     ----
              UZF ET =       0.0000E+00                UZF ET =       0.0000E+00
        UZF RECHARGE =       73224.0000          UZF RECHARGE =       0.0000E+00

            IN - OUT =       0.0000E+00              IN - OUT =       0.0000E+00

          STORAGE:                                 STORAGE:
          --------                                 --------
      STORAGE CHANGE =       0.0000E+00        STORAGE CHANGE =       0.0000E+00

 PERCENT DISCREPANCY IS DIFFERENCE BETWEEN IN-OUT MINUS CHANGE IN STORAGE
 DIVIDED BY THE AVERAGE OF IN AND OUT TIMES 100

 PERCENT DISCREPANCY =           0.00     PERCENT DISCREPANCY =           0.00






1
  VOLUMETRIC BUDGET FOR ENTIRE MODEL AT END OF TIME STEP   30, STRESS PERIOD   4
  ------------------------------------------------------------------------------

     CUMULATIVE VOLUMES      L**3       RATES FOR THIS TIME STEP      L**3/T
     ------------------                 ------------------------

           IN:                                      IN:
           ---                                      ---
    AWU WELLS            =           0.0000      AWU WELLS            =           0.0000
    DIVERSION SEGMENTS   =           0.0000      DIVERSION SEGMENTS   =           0.0000
    GW IRRIGATION        =           0.0000      GW IRRIGATION        =           0.0000
    SW IRRIGATION        =           0.0000      SW IRRIGATION        =           0.0000
    EFFICIENCY FACTOR GW =           0.0000      EFFICIENCY FACTOR GW =           0.0000
    EFFICIENCY FACTOR SW =           0.0000      EFFICIENCY FACTOR SW =           0.0000

                TOTAL IN =           0.0000                  TOTAL IN =           0.0000

          OUT:                                     OUT:
          ----                                     ----
    AWU WELLS            =           0.0000      AWU WELLS            =           0.0000
    DIVERSION SEGMENTS   =           0.0000      DIVERSION SEGMENTS   =           0.0000
    GW IRRIGATION        =           0.0000      GW IRRIGATION        =           0.0000
    SW IRRIGATION        =           0.0000      SW IRRIGATION        =           0.0000
    EFFICIENCY FACTOR GW =           0.0000      EFFICIENCY FACTOR GW =           0.0000
    EFFICIENCY FACTOR SW =           0.0000      EFFICIENCY FACTOR SW =           0.0000

               TOTAL OUT =           0.0000                 TOTAL OUT =           0.0000

                IN - OUT =           0.0000                  IN - OUT =           0.0000

     PERCENT DISCREPANCY =           0.00         PERCENT DISCREPANCY =           0.00



1
  VOLUMETRIC BUDGET FOR ENTIRE MODEL AT END OF TIME STEP   30, STRESS PERIOD   4
  ------------------------------------------------------------------------------

     CUMULATIVE VOLUMES      L**3       RATES FOR THIS TIME STEP      L**3/T
     ------------------                 ------------------------

           IN:                                      IN:
           ---                                      ---
             STORAGE     =     4816366.0000               STORAGE     =           0.4451
       CONSTANT HEAD     =           0.0000         CONSTANT HEAD     =           0.0000
     HEAD DEP BOUNDS     =     2278012.2500       HEAD DEP BOUNDS     =           0.2859
      STREAM LEAKAGE     =    91838592.0000        STREAM LEAKAGE     =          13.3898
        UZF RECHARGE     =       73223.9531          UZF RECHARGE     =           0.0000
               GW ET     =           0.0000                 GW ET     =           0.0000
     SURFACE LEAKAGE     =           0.0000       SURFACE LEAKAGE     =           0.0000
    AWU WELLS            =           0.0000      AWU WELLS            =           0.0000

                TOTAL IN =    99006192.0000                  TOTAL IN =          14.1208

          OUT:                                     OUT:
          ----                                     ----
             STORAGE     =    13889442.0000               STORAGE     =           4.3239
       CONSTANT HEAD     =           0.0000         CONSTANT HEAD     =           0.0000
     HEAD DEP BOUNDS     =     2298225.2500       HEAD DEP BOUNDS     =           0.2924
      STREAM LEAKAGE     =    82659312.0000        STREAM LEAKAGE     =           9.4968
        UZF RECHARGE     =           0.0000          UZF RECHARGE     =           0.0000
               GW ET     =      165745.6406                 GW ET     =       1.0476E-02
     SURFACE LEAKAGE     =           0.0000       SURFACE LEAKAGE     =           0.0000
    AWU WELLS            =           0.0000      AWU WELLS            =           0.0000

               TOTAL OUT =    99012720.0000                 TOTAL OUT =          14.1236

                IN - OUT =       -6528.0000                  IN - OUT =      -2.7905E-03

     PERCENT DISCREPANCY =          -0.01         PERCENT DISCREPANCY =          -0.02






         TIME SUMMARY AT END OF TIME STEP   30 IN STRESS PERIOD    4
                    SECONDS     MINUTES      HOURS       DAYS        YEARS
                    -----------------------------------------------------------
   TIME STEP LENGTH  87600.      1460.0      24.333      1.0139     2.77588E-03
 STRESS PERIOD TIME 2.62800E+06  43800.      730.00      30.417     8.32763E-02
         TOTAL TIME 7.97040E+06 1.32840E+05  2214.0      92.250     0.25257    
1
1
                            STRESS PERIOD NO.    5, LENGTH =   2628000.    
                            -----------------------------------------------

                              NUMBER OF TIME STEPS =    30

                               MULTIPLIER FOR DELT =     1.000

                            INITIAL TIME STEP SIZE =   87600.00    

 REUSING NON-PARAMETER GHB CELLS FROM LAST STRESS PERIOD

      2 GHB CELLS

 REUSING STREAM SEGMENT DATA FROM LAST STRESS PERIOD



            AREAL INFILTRATION RATE
 READING ON UNIT   19 WITH FORMAT: (10F4.0)            

            1           2           3           4           5           6           7           8           9          10
 ........................................................................................................................
   1    0.000       0.000       0.000       0.000       0.000       0.000       0.000       0.000       0.000       0.000    
   2    0.000       0.000       0.000       0.000       0.000       0.000       0.000       0.000       0.000       0.000    
   3    0.000       0.000       0.000       0.000       0.000       0.000       0.000       0.000       0.000       0.000    
   4    0.000       0.000       0.000       0.000       0.000       0.000       0.000       0.000       0.000       0.000    
   5    0.000       0.000       0.000       0.000       0.000       0.000       0.000       0.000       0.000       0.000    
   6    0.000       0.000       0.000       0.000       0.000       0.000       0.000       0.000       0.000       0.000    
   7    0.000       0.000       0.000       0.000       0.000       0.000       0.000       0.000       0.000       0.000    
   8    0.000       0.000       0.000       0.000       0.000       0.000       0.000       0.000       0.000       0.000    
   9    0.000       0.000       0.000       0.000       0.000       0.000       0.000       0.000       0.000       0.000    
  10    0.000       0.000       0.000       0.000       0.000       0.000       0.000       0.000       0.000       0.000    
  11    0.000       0.000       0.000       0.000       0.000       0.000       0.000       0.000       0.000       0.000    
  12    0.000       0.000       0.000       0.000       0.000       0.000       0.000       0.000       0.000       0.000    
  13    0.000       0.000       0.000       0.000       0.000       0.000       0.000       0.000       0.000       0.000    
  14    0.000       0.000       0.000       0.000       0.000       0.000       0.000       0.000       0.000       0.000    
  15    0.000       0.000       0.000       0.000       0.000       0.000       0.000       0.000       0.000       0.000    

                  ET RATE =  5.000000E-09

 USING ET EXTINCTION DEPTH FROM PREVIOUS STRESS PERIOD. CURRENT PERIOD IS:       5

 USING EXTINCTION WATER CONTENT FROM PREVIOUS STRESS PERIOD. CURRENT PERIOD IS:       5

 PROCESSING AWU STRESS PERIOD DATA

 READING AWU STRESS PERIOD DATA

 READING IRRIGATION WELL

 END PROCESSING AWU STRESS PERIOD DATA OPTIONS
 
 SOLVING FOR HEAD 
                                                   Max.-Head-Change                         Max.-Flux-Residual
  Residual-Control   Outer-Iter.   Inner-Iter.     Column Row Layer    Maximum-Head-Change  Column Row Layer    Maximum-Flux-Residual          L2-NORM 
          0                 1           2             4    7     1      -0.2366827117E+00       4    8    1        -0.1237581577E+02      0.3030741825E+02
          0                 2           2             4    7     1      -0.1183545040E-02       4    7    1        -0.6210502096E-01      0.1661081495E+00
          0                 3           1             4    7     1       0.1172785434E-03       4    7    1         0.6209958221E-02      0.1616990563E-01
          0                 4           1             4    7     1      -0.1045920322E-04       4    7    1        -0.5588479237E-03      0.1420108785E-02

    ------------------------------------------------
       NWT REQUIRED            4 OUTER ITERATIONS 
       AND A TOTAL OF          6 INNER ITERATIONS.
    ------------------------------------------------

 OUTPUT CONTROL FOR STRESS PERIOD    5   TIME STEP    1
    PRINT BUDGET
    SAVE BUDGET
 UBDSV1 SAVING "         STORAGE" ON UNIT 102 AT TIME STEP     1, STRESS PERIOD   5
 UBDSV2 SAVING "   CONSTANT HEAD" ON UNIT 102 AT TIME STEP     1, STRESS PERIOD   5
 UBDSV1 SAVING "FLOW RIGHT FACE " ON UNIT 102 AT TIME STEP     1, STRESS PERIOD   5
 UBDSV1 SAVING "FLOW FRONT FACE " ON UNIT 102 AT TIME STEP     1, STRESS PERIOD   5

  HEAD DEP BOUNDS   PERIOD    5   STEP     1
 BOUNDARY      1   LAYER   1   ROW    13   COL     1   RATE   -0.292485    
 BOUNDARY      2   LAYER   1   ROW    14   COL     9   RATE    0.285866    



 STREAM LISTING     PERIOD      5   STEP        1

 LAYER ROW COL. STREAM  RCH.  FLOW INTO     FLOW TO   FLOW OUT OF   OVRLND.     DIRECT     STREAM       STREAM     STREAM     STREAM   STREAMBED  STREAMBED
                SEG.NO.  NO.  STRM. RCH.    AQUIFER    STRM. RCH.    RUNOFF     PRECIP       ET          HEAD       DEPTH      WIDTH   CONDCTNC.   GRADIENT

   1    1    1     1     1    7.7000E+01  4.2703E-01   7.6573E+01  0.000E+00  0.000E+00  0.000E+00  1.09476E+03  1.708E+00  2.016E+01  9.070E-02  1.569E+00
   1    2    2     1     2    7.6573E+01  6.6237E-01   7.5911E+01  0.000E+00  0.000E+00  0.000E+00  1.08976E+03  1.706E+00  2.011E+01  1.408E-01  1.569E+00
   1    3    3     1     3    7.5911E+01  5.6590E-01   7.5345E+01  0.000E+00  0.000E+00  0.000E+00  1.08412E+03  1.703E+00  2.006E+01  1.203E-01  1.568E+00
   1    3    4     1     4    7.5345E+01  5.2193E-01   7.4823E+01  0.000E+00  0.000E+00  0.000E+00  1.07911E+03  1.700E+00  2.001E+01  1.110E-01  1.567E+00
   1    4    5     2     1    7.2823E+01  4.1259E-01   7.2410E+01  0.000E+00  0.000E+00  0.000E+00  1.07422E+03  2.290E+00  1.200E+01  7.800E-02  1.763E+00
   1    5    6     2     2    7.2410E+01  3.1696E-01   7.2093E+01  0.000E+00  0.000E+00  0.000E+00  1.06879E+03  2.283E+00  1.200E+01  6.000E-02  1.761E+00
   1    6    6     2     3    7.2093E+01  3.1660E-01   7.1777E+01  0.000E+00  0.000E+00  0.000E+00  1.06407E+03  2.277E+00  1.200E+01  6.000E-02  1.759E+00
   1    7    6     2     4    7.1777E+01  3.1624E-01   7.1460E+01  0.000E+00  0.000E+00  0.000E+00  1.05935E+03  2.271E+00  1.200E+01  6.000E-02  1.757E+00
   1    8    6     2     5    7.1460E+01  3.1588E-01   7.1144E+01  0.000E+00  0.000E+00  0.000E+00  1.05462E+03  2.265E+00  1.200E+01  6.000E-02  1.755E+00
   1    3    5     3     1    2.0000E+00  2.8252E-01   1.7175E+00  0.000E+00  0.000E+00  0.000E+00  1.07555E+03  1.909E+00  9.636E+00  7.227E-02  1.955E+00
   1    3    6     3     2    1.7175E+00  2.4905E-01   1.4684E+00  0.000E+00  0.000E+00  0.000E+00  1.07264E+03  1.727E+00  8.909E+00  6.682E-02  1.864E+00
   1    3    7     3     3    1.4684E+00  1.9718E-01   1.2712E+00  0.000E+00  0.000E+00  0.000E+00  1.06987E+03  1.555E+00  8.218E+00  5.547E-02  1.777E+00
   1    4    8     3     4    1.2712E+00  2.2567E-01   1.0456E+00  0.000E+00  0.000E+00  0.000E+00  1.06682E+03  1.364E+00  7.455E+00  6.709E-02  1.682E+00
   1    5    8     3     5    1.0456E+00  1.5790E-01   8.8768E-01  0.000E+00  0.000E+00  0.000E+00  1.06362E+03  1.164E+00  6.655E+00  4.991E-02  1.582E+00
   1    6    8     3     6    8.8768E-01  5.5980E-02   8.3170E-01  0.000E+00  0.000E+00  0.000E+00  1.06158E+03  1.036E+00  6.145E+00  1.844E-02  1.518E+00
   1    5   10     4     1    1.0000E+01  9.0919E-02   9.9091E+00  0.000E+00  0.000E+00  0.000E+00  1.07836E+03  6.368E-01  1.000E+01  2.500E-02  1.212E+00
   1    5    9     4     2    9.9091E+00  1.8158E-01   9.7275E+00  0.000E+00  0.000E+00  0.000E+00  1.07154E+03  6.315E-01  1.000E+01  5.000E-02  1.211E+00
   1    6    8     4     3    9.7275E+00  1.2689E-01   9.6006E+00  0.000E+00  0.000E+00  0.000E+00  1.06381E+03  6.256E-01  1.000E+01  3.500E-02  1.209E+00
   1    6    8     5     1    1.0432E+01  2.2686E-01   1.0205E+01  0.000E+00  0.000E+00  0.000E+00  1.05868E+03  6.790E-01  1.542E+01  6.166E-02  1.226E+00
   1    7    7     5     2    1.0205E+01  2.7894E-01   9.9265E+00  0.000E+00  0.000E+00  0.000E+00  1.05417E+03  6.732E-01  1.519E+01  7.594E-02  1.224E+00
   1    8    7     5     3    9.9265E+00  1.9221E-01   9.7343E+00  0.000E+00  0.000E+00  0.000E+00  1.04992E+03  6.676E-01  1.497E+01  5.241E-02  1.223E+00
   1    8    6     5     4    9.7343E+00  1.3577E-01   9.5985E+00  0.000E+00  0.000E+00  0.000E+00  1.04691E+03  6.637E-01  1.482E+01  3.706E-02  1.221E+00
   1    9    6     6     1    6.0743E+01  3.0461E-01   6.0438E+01  0.000E+00  0.000E+00  0.000E+00  1.04480E+03  2.077E+00  1.200E+01  6.000E-02  1.692E+00
   1   10    7     6     2    6.0438E+01  3.0424E-01   6.0134E+01  0.000E+00  0.000E+00  0.000E+00  1.04025E+03  2.071E+00  1.200E+01  6.000E-02  1.690E+00
   1   11    7     6     3    6.0134E+01  3.0386E-01   5.9830E+01  0.000E+00  0.000E+00  0.000E+00  1.03570E+03  2.064E+00  1.200E+01  6.000E-02  1.688E+00
   1   12    7     6     4    5.9830E+01  3.0348E-01   5.9527E+01  0.000E+00  0.000E+00  0.000E+00  1.03115E+03  2.058E+00  1.200E+01  6.000E-02  1.686E+00
   1   13    7     6     5    5.9527E+01  2.0696E-02   5.9506E+01  0.000E+00  0.000E+00  0.000E+00  1.02796E+03  2.055E+00  1.200E+01  2.400E-02  2.874E-01
   1   14    9     7     1    1.5000E+02  1.3374E+00   1.4866E+02  0.000E+00  0.000E+00  0.000E+00  1.03987E+03  2.288E+00  5.529E+01  5.593E-01  7.971E-01
   1   13    8     7     2    1.4866E+02  1.8346E+00   1.4683E+02  0.000E+00  0.000E+00  0.000E+00  1.03478E+03  2.279E+00  5.526E+01  6.148E-01  9.947E-01
   1   13    7     7     3    1.4683E+02  1.4455E+00   1.4538E+02  0.000E+00  0.000E+00  0.000E+00  1.02969E+03  2.271E+00  5.522E+01  5.585E-01  8.628E-01
   1   13    6     8     1    2.0489E+02  1.0422E+00   2.0385E+02  0.000E+00  0.000E+00  0.000E+00  1.02504E+03  3.163E+00  4.587E+01  4.674E-01  7.433E-01
   1   13    5     8     2    2.0385E+02  2.3443E-01   2.0361E+02  0.000E+00  0.000E+00  0.000E+00  1.01878E+03  3.160E+00  4.581E+01  4.669E-01  1.674E-01
   1   13    4     8     3    2.0361E+02 -2.1800E+00   2.0579E+02  0.000E+00  0.000E+00  0.000E+00  1.01254E+03  3.165E+00  4.590E+01  4.677E+00 -1.554E-01
   1   13    3     8     4    2.0579E+02 -3.3833E+00   2.0918E+02  0.000E+00  0.000E+00  0.000E+00  1.00631E+03  3.181E+00  4.613E+01  4.701E+00 -2.399E-01
   1   13    2     8     5    2.0918E+02 -2.2448E+00   2.1142E+02  0.000E+00  0.000E+00  0.000E+00  1.00007E+03  3.197E+00  4.636E+01  4.724E+00 -1.584E-01
   1   13    1     8     6    2.1142E+02 -1.7446E+00   2.1316E+02  0.000E+00  0.000E+00  0.000E+00  9.95084E+02  3.209E+00  4.653E+01  2.845E+00 -2.044E-01
   1    6    8     9     1    2.0000E+01  0.0000E+00   2.0000E+01  0.000E+00  0.000E+00  0.000E+00  1.07932E+03  8.168E-01  4.000E+00  0.000E+00  1.272E+00



 UBDSV3 SAVING "           GW ET" ON UNIT  61 AT TIME STEP     1, STRESS PERIOD   5
 UBDSV3 SAVING "    UZF RECHARGE" ON UNIT  61 AT TIME STEP     1, STRESS PERIOD   5
 UBDSV3 SAVING " SURFACE LEAKAGE" ON UNIT  61 AT TIME STEP     1, STRESS PERIOD   5
 UBDSV3 SAVING "       HORT+DUNN" ON UNIT  61 AT TIME STEP     1, STRESS PERIOD   5
 UBDSV3 SAVING "  STORAGE CHANGE" ON UNIT  61 AT TIME STEP     1, STRESS PERIOD   5


UNSATURATED ZONE PACKAGE VOLUMETRIC BUDGET FOR  TIME STEP     1 STRESS PERIOD    5
  ------------------------------------------------------------------------------



     CUMULATIVE VOLUMES      L**3       RATES FOR THIS TIME STEP      L**3/T
     ------------------                 ------------------------

           IN:                                      IN:
           ---                                      ---
        INFILTRATION =     7257466.5000          INFILTRATION =          82.0119

          OUT:                                     OUT:
          ----                                     ----
              UZF ET =        6279.5669                UZF ET =           0.0717
        UZF RECHARGE =       73224.0000          UZF RECHARGE =       0.0000E+00

            IN - OUT =     7177962.9331              IN - OUT =          81.9402

          STORAGE:                                 STORAGE:
          --------                                 --------
      STORAGE CHANGE =     7177962.6112        STORAGE CHANGE =          81.9402

 PERCENT DISCREPANCY IS DIFFERENCE BETWEEN IN-OUT MINUS CHANGE IN STORAGE
 DIVIDED BY THE AVERAGE OF IN AND OUT TIMES 100

 PERCENT DISCREPANCY =           0.00     PERCENT DISCREPANCY =           0.00






 

 AWU WELLS                PERIOD    5   STEP   1
 AWU WELL      1   LAYER   1   ROW     6   COL     4   RATE    -13.6686    
 AWU WELL      2   LAYER   1   ROW     6   COL     5   RATE    -13.6686    
 AWU WELL      3   LAYER   1   ROW     7   COL     4   RATE    -13.6686    
 AWU WELL      4   LAYER   1   ROW     7   COL     5   RATE    -13.6686    
 AWU WELL      5   LAYER   1   ROW     8   COL     4   RATE    -13.6686    
 AWU WELL      6   LAYER   1   ROW     8   COL     5   RATE    -13.6686    
 
 

 GW IRRIGATION            PERIOD    5   STEP   1
 AWU WELL      1   ROW     6   COL     4   RATE     13.6686    
 AWU WELL      2   ROW     6   COL     5   RATE     13.6686    
 AWU WELL      3   ROW     7   COL     4   RATE     13.6686    
 AWU WELL      4   ROW     7   COL     5   RATE     13.6686    
 AWU WELL      5   ROW     8   COL     4   RATE     13.6686    
 AWU WELL      6   ROW     8   COL     5   RATE     13.6686    
 
1
  VOLUMETRIC BUDGET FOR ENTIRE MODEL AT END OF TIME STEP    1, STRESS PERIOD   5
  ------------------------------------------------------------------------------

     CUMULATIVE VOLUMES      L**3       RATES FOR THIS TIME STEP      L**3/T
     ------------------                 ------------------------

           IN:                                      IN:
           ---                                      ---
    AWU WELLS            =     7184242.5000      AWU WELLS            =          82.0119
    DIVERSION SEGMENTS   =           0.0000      DIVERSION SEGMENTS   =           0.0000
    GW IRRIGATION        =           0.0000      GW IRRIGATION        =           0.0000
    SW IRRIGATION        =           0.0000      SW IRRIGATION        =           0.0000
    EFFICIENCY FACTOR GW =           0.0000      EFFICIENCY FACTOR GW =           0.0000
    EFFICIENCY FACTOR SW =           0.0000      EFFICIENCY FACTOR SW =           0.0000

                TOTAL IN =     7184242.5000                  TOTAL IN =          82.0119

          OUT:                                     OUT:
          ----                                     ----
    AWU WELLS            =           0.0000      AWU WELLS            =           0.0000
    DIVERSION SEGMENTS   =           0.0000      DIVERSION SEGMENTS   =           0.0000
    GW IRRIGATION        =     7184242.5000      GW IRRIGATION        =          82.0119
    SW IRRIGATION        =           0.0000      SW IRRIGATION        =           0.0000
    EFFICIENCY FACTOR GW =           0.0000      EFFICIENCY FACTOR GW =           0.0000
    EFFICIENCY FACTOR SW =           0.0000      EFFICIENCY FACTOR SW =           0.0000

               TOTAL OUT =     7184242.5000                 TOTAL OUT =          82.0119

                IN - OUT =           0.0000                  IN - OUT =           0.0000

     PERCENT DISCREPANCY =           0.00         PERCENT DISCREPANCY =           0.00



1
  VOLUMETRIC BUDGET FOR ENTIRE MODEL AT END OF TIME STEP    1, STRESS PERIOD   5
  ------------------------------------------------------------------------------

     CUMULATIVE VOLUMES      L**3       RATES FOR THIS TIME STEP      L**3/T
     ------------------                 ------------------------

           IN:                                      IN:
           ---                                      ---
             STORAGE     =    12010359.0000               STORAGE     =          82.1232
       CONSTANT HEAD     =           0.0000         CONSTANT HEAD     =           0.0000
     HEAD DEP BOUNDS     =     2303054.0000       HEAD DEP BOUNDS     =           0.2859
      STREAM LEAKAGE     =    93011384.0000        STREAM LEAKAGE     =          13.3881
        UZF RECHARGE     =       73223.9531          UZF RECHARGE     =           0.0000
               GW ET     =           0.0000                 GW ET     =           0.0000
     SURFACE LEAKAGE     =           0.0000       SURFACE LEAKAGE     =           0.0000
    AWU WELLS            =           0.0000      AWU WELLS            =           0.0000

                TOTAL IN =   107398024.0000                  TOTAL IN =          95.7971

          OUT:                                     OUT:
          ----                                     ----
             STORAGE     =    14188627.0000               STORAGE     =           3.4154
       CONSTANT HEAD     =           0.0000         CONSTANT HEAD     =           0.0000
     HEAD DEP BOUNDS     =     2323847.0000       HEAD DEP BOUNDS     =           0.2925
      STREAM LEAKAGE     =    83496136.0000        STREAM LEAKAGE     =           9.5528
        UZF RECHARGE     =           0.0000          UZF RECHARGE     =           0.0000
               GW ET     =      211667.7188                 GW ET     =           0.5242
     SURFACE LEAKAGE     =           0.0000       SURFACE LEAKAGE     =           0.0000
    AWU WELLS            =     7184242.5000      AWU WELLS            =          82.0119

               TOTAL OUT =   107404512.0000                 TOTAL OUT =          95.7967

                IN - OUT =       -6488.0000                  IN - OUT =       4.1962E-04

     PERCENT DISCREPANCY =          -0.01         PERCENT DISCREPANCY =           0.00






         TIME SUMMARY AT END OF TIME STEP    1 IN STRESS PERIOD    5
                    SECONDS     MINUTES      HOURS       DAYS        YEARS
                    -----------------------------------------------------------
   TIME STEP LENGTH  87600.      1460.0      24.333      1.0139     2.77588E-03
 STRESS PERIOD TIME  87600.      1460.0      24.333      1.0139     2.77588E-03
         TOTAL TIME 8.05800E+06 1.34300E+05  2238.3      93.264     0.25534    
1
 
 SOLVING FOR HEAD 
                                                   Max.-Head-Change                         Max.-Flux-Residual
  Residual-Control   Outer-Iter.   Inner-Iter.     Column Row Layer    Maximum-Head-Change  Column Row Layer    Maximum-Flux-Residual          L2-NORM 
          0                 1           2             4    7     1      -0.8681690112E-02       4    7    1        -0.4602757637E+00      0.1169785544E+01
          0                 2           2             5    8     1      -0.1262878572E-01       5    8    1        -0.6774532158E+00      0.1626940885E+01
          0                 3           2             5    8     1       0.1251392364E-02       5    8    1         0.6774327874E-01      0.1626449013E+00
          0                 4           2             5    8     1      -0.1116024545E-03       5    8    1        -0.6096750861E-02      0.1463417679E-01
          0                 5           1             5    8     1       0.8858241105E-05       5    8    1         0.4883380414E-03      0.1171921618E-02

    ------------------------------------------------
       NWT REQUIRED            5 OUTER ITERATIONS 
       AND A TOTAL OF          9 INNER ITERATIONS.
    ------------------------------------------------

 OUTPUT CONTROL FOR STRESS PERIOD    5   TIME STEP    2
    PRINT BUDGET
    SAVE BUDGET
 UBDSV1 SAVING "         STORAGE" ON UNIT 102 AT TIME STEP     2, STRESS PERIOD   5
 UBDSV2 SAVING "   CONSTANT HEAD" ON UNIT 102 AT TIME STEP     2, STRESS PERIOD   5
 UBDSV1 SAVING "FLOW RIGHT FACE " ON UNIT 102 AT TIME STEP     2, STRESS PERIOD   5
 UBDSV1 SAVING "FLOW FRONT FACE " ON UNIT 102 AT TIME STEP     2, STRESS PERIOD   5

  HEAD DEP BOUNDS   PERIOD    5   STEP     2
 BOUNDARY      1   LAYER   1   ROW    13   COL     1   RATE   -0.292566    
 BOUNDARY      2   LAYER   1   ROW    14   COL     9   RATE    0.285867    



 STREAM LISTING     PERIOD      5   STEP        2

 LAYER ROW COL. STREAM  RCH.  FLOW INTO     FLOW TO   FLOW OUT OF   OVRLND.     DIRECT     STREAM       STREAM     STREAM     STREAM   STREAMBED  STREAMBED
                SEG.NO.  NO.  STRM. RCH.    AQUIFER    STRM. RCH.    RUNOFF     PRECIP       ET          HEAD       DEPTH      WIDTH   CONDCTNC.   GRADIENT

   1    1    1     1     1    7.7000E+01  4.2703E-01   7.6573E+01  0.000E+00  0.000E+00  0.000E+00  1.09476E+03  1.708E+00  2.016E+01  9.070E-02  1.569E+00
   1    2    2     1     2    7.6573E+01  6.6237E-01   7.5911E+01  0.000E+00  0.000E+00  0.000E+00  1.08976E+03  1.706E+00  2.011E+01  1.408E-01  1.569E+00
   1    3    3     1     3    7.5911E+01  5.6590E-01   7.5345E+01  0.000E+00  0.000E+00  0.000E+00  1.08412E+03  1.703E+00  2.006E+01  1.203E-01  1.568E+00
   1    3    4     1     4    7.5345E+01  5.2193E-01   7.4823E+01  0.000E+00  0.000E+00  0.000E+00  1.07911E+03  1.700E+00  2.001E+01  1.110E-01  1.567E+00
   1    4    5     2     1    7.2823E+01  4.1259E-01   7.2410E+01  0.000E+00  0.000E+00  0.000E+00  1.07422E+03  2.290E+00  1.200E+01  7.800E-02  1.763E+00
   1    5    6     2     2    7.2410E+01  3.1696E-01   7.2093E+01  0.000E+00  0.000E+00  0.000E+00  1.06879E+03  2.283E+00  1.200E+01  6.000E-02  1.761E+00
   1    6    6     2     3    7.2093E+01  3.1660E-01   7.1777E+01  0.000E+00  0.000E+00  0.000E+00  1.06407E+03  2.277E+00  1.200E+01  6.000E-02  1.759E+00
   1    7    6     2     4    7.1777E+01  3.1624E-01   7.1460E+01  0.000E+00  0.000E+00  0.000E+00  1.05935E+03  2.271E+00  1.200E+01  6.000E-02  1.757E+00
   1    8    6     2     5    7.1460E+01  3.1588E-01   7.1144E+01  0.000E+00  0.000E+00  0.000E+00  1.05462E+03  2.265E+00  1.200E+01  6.000E-02  1.755E+00
   1    3    5     3     1    2.0000E+00  2.8252E-01   1.7175E+00  0.000E+00  0.000E+00  0.000E+00  1.07555E+03  1.909E+00  9.636E+00  7.227E-02  1.955E+00
   1    3    6     3     2    1.7175E+00  2.4905E-01   1.4684E+00  0.000E+00  0.000E+00  0.000E+00  1.07264E+03  1.727E+00  8.909E+00  6.682E-02  1.864E+00
   1    3    7     3     3    1.4684E+00  1.9718E-01   1.2712E+00  0.000E+00  0.000E+00  0.000E+00  1.06987E+03  1.555E+00  8.218E+00  5.547E-02  1.777E+00
   1    4    8     3     4    1.2712E+00  2.2567E-01   1.0456E+00  0.000E+00  0.000E+00  0.000E+00  1.06682E+03  1.364E+00  7.455E+00  6.709E-02  1.682E+00
   1    5    8     3     5    1.0456E+00  1.5790E-01   8.8768E-01  0.000E+00  0.000E+00  0.000E+00  1.06362E+03  1.164E+00  6.655E+00  4.991E-02  1.582E+00
   1    6    8     3     6    8.8768E-01  5.5980E-02   8.3170E-01  0.000E+00  0.000E+00  0.000E+00  1.06158E+03  1.036E+00  6.145E+00  1.844E-02  1.518E+00
   1    5   10     4     1    1.0000E+01  9.0919E-02   9.9091E+00  0.000E+00  0.000E+00  0.000E+00  1.07836E+03  6.368E-01  1.000E+01  2.500E-02  1.212E+00
   1    5    9     4     2    9.9091E+00  1.8158E-01   9.7275E+00  0.000E+00  0.000E+00  0.000E+00  1.07154E+03  6.315E-01  1.000E+01  5.000E-02  1.211E+00
   1    6    8     4     3    9.7275E+00  1.2689E-01   9.6006E+00  0.000E+00  0.000E+00  0.000E+00  1.06381E+03  6.256E-01  1.000E+01  3.500E-02  1.209E+00
   1    6    8     5     1    1.0432E+01  2.2686E-01   1.0205E+01  0.000E+00  0.000E+00  0.000E+00  1.05868E+03  6.790E-01  1.542E+01  6.166E-02  1.226E+00
   1    7    7     5     2    1.0205E+01  2.7894E-01   9.9265E+00  0.000E+00  0.000E+00  0.000E+00  1.05417E+03  6.732E-01  1.519E+01  7.594E-02  1.224E+00
   1    8    7     5     3    9.9265E+00  1.9221E-01   9.7343E+00  0.000E+00  0.000E+00  0.000E+00  1.04992E+03  6.676E-01  1.497E+01  5.241E-02  1.223E+00
   1    8    6     5     4    9.7343E+00  1.3577E-01   9.5985E+00  0.000E+00  0.000E+00  0.000E+00  1.04691E+03  6.637E-01  1.482E+01  3.706E-02  1.221E+00
   1    9    6     6     1    6.0743E+01  3.0461E-01   6.0438E+01  0.000E+00  0.000E+00  0.000E+00  1.04480E+03  2.077E+00  1.200E+01  6.000E-02  1.692E+00
   1   10    7     6     2    6.0438E+01  3.0424E-01   6.0134E+01  0.000E+00  0.000E+00  0.000E+00  1.04025E+03  2.071E+00  1.200E+01  6.000E-02  1.690E+00
   1   11    7     6     3    6.0134E+01  3.0386E-01   5.9830E+01  0.000E+00  0.000E+00  0.000E+00  1.03570E+03  2.064E+00  1.200E+01  6.000E-02  1.688E+00
   1   12    7     6     4    5.9830E+01  3.0348E-01   5.9527E+01  0.000E+00  0.000E+00  0.000E+00  1.03115E+03  2.058E+00  1.200E+01  6.000E-02  1.686E+00
   1   13    7     6     5    5.9527E+01  2.0678E-02   5.9506E+01  0.000E+00  0.000E+00  0.000E+00  1.02796E+03  2.055E+00  1.200E+01  2.400E-02  2.872E-01
   1   14    9     7     1    1.5000E+02  1.3374E+00   1.4866E+02  0.000E+00  0.000E+00  0.000E+00  1.03987E+03  2.288E+00  5.529E+01  5.593E-01  7.971E-01
   1   13    8     7     2    1.4866E+02  1.8345E+00   1.4683E+02  0.000E+00  0.000E+00  0.000E+00  1.03478E+03  2.279E+00  5.526E+01  6.148E-01  9.947E-01
   1   13    7     7     3    1.4683E+02  1.4451E+00   1.4538E+02  0.000E+00  0.000E+00  0.000E+00  1.02969E+03  2.271E+00  5.522E+01  5.585E-01  8.626E-01
   1   13    6     8     1    2.0489E+02  1.0414E+00   2.0385E+02  0.000E+00  0.000E+00  0.000E+00  1.02504E+03  3.163E+00  4.587E+01  4.674E-01  7.427E-01
   1   13    5     8     2    2.0385E+02  2.3412E-01   2.0361E+02  0.000E+00  0.000E+00  0.000E+00  1.01878E+03  3.160E+00  4.581E+01  4.669E-01  1.672E-01
   1   13    4     8     3    2.0361E+02 -2.1948E+00   2.0581E+02  0.000E+00  0.000E+00  0.000E+00  1.01254E+03  3.165E+00  4.590E+01  4.677E+00 -1.564E-01
   1   13    3     8     4    2.0581E+02 -3.3962E+00   2.0920E+02  0.000E+00  0.000E+00  0.000E+00  1.00631E+03  3.181E+00  4.613E+01  4.701E+00 -2.408E-01
   1   13    2     8     5    2.0920E+02 -2.2633E+00   2.1147E+02  0.000E+00  0.000E+00  0.000E+00  1.00007E+03  3.198E+00  4.636E+01  4.725E+00 -1.597E-01
   1   13    1     8     6    2.1147E+02 -1.7500E+00   2.1322E+02  0.000E+00  0.000E+00  0.000E+00  9.95084E+02  3.209E+00  4.653E+01  2.845E+00 -2.050E-01
   1    6    8     9     1    2.0000E+01  0.0000E+00   2.0000E+01  0.000E+00  0.000E+00  0.000E+00  1.07932E+03  8.168E-01  4.000E+00  0.000E+00  1.272E+00



 UBDSV3 SAVING "           GW ET" ON UNIT  61 AT TIME STEP     2, STRESS PERIOD   5
 UBDSV3 SAVING "    UZF RECHARGE" ON UNIT  61 AT TIME STEP     2, STRESS PERIOD   5
 UBDSV3 SAVING " SURFACE LEAKAGE" ON UNIT  61 AT TIME STEP     2, STRESS PERIOD   5
 UBDSV3 SAVING "       HORT+DUNN" ON UNIT  61 AT TIME STEP     2, STRESS PERIOD   5
 UBDSV3 SAVING "  STORAGE CHANGE" ON UNIT  61 AT TIME STEP     2, STRESS PERIOD   5


UNSATURATED ZONE PACKAGE VOLUMETRIC BUDGET FOR  TIME STEP     2 STRESS PERIOD    5
  ------------------------------------------------------------------------------



     CUMULATIVE VOLUMES      L**3       RATES FOR THIS TIME STEP      L**3/T
     ------------------                 ------------------------

           IN:                                      IN:
           ---                                      ---
        INFILTRATION =     7898019.8438          INFILTRATION =           7.3123

          OUT:                                     OUT:
          ----                                     ----
              UZF ET =       16364.3511                UZF ET =           0.1151
        UZF RECHARGE =       73224.0000          UZF RECHARGE =       0.0000E+00

            IN - OUT =     7808431.4927              IN - OUT =           7.1971

          STORAGE:                                 STORAGE:
          --------                                 --------
      STORAGE CHANGE =     7808522.2934        STORAGE CHANGE =           7.1982

 PERCENT DISCREPANCY IS DIFFERENCE BETWEEN IN-OUT MINUS CHANGE IN STORAGE
 DIVIDED BY THE AVERAGE OF IN AND OUT TIMES 100

 PERCENT DISCREPANCY =          -0.00     PERCENT DISCREPANCY =          -0.01






 

 AWU WELLS                PERIOD    5   STEP   2
 AWU WELL      1   LAYER   1   ROW     6   COL     4   RATE    -1.21871    
 AWU WELL      2   LAYER   1   ROW     6   COL     5   RATE    -1.21871    
 AWU WELL      3   LAYER   1   ROW     7   COL     4   RATE    -1.21871    
 AWU WELL      4   LAYER   1   ROW     7   COL     5   RATE    -1.21871    
 AWU WELL      5   LAYER   1   ROW     8   COL     4   RATE    -1.21871    
 AWU WELL      6   LAYER   1   ROW     8   COL     5   RATE    -1.21871    
 
 

 GW IRRIGATION            PERIOD    5   STEP   2
 AWU WELL      1   ROW     6   COL     4   RATE     1.21871    
 AWU WELL      2   ROW     6   COL     5   RATE     1.21871    
 AWU WELL      3   ROW     7   COL     4   RATE     1.21871    
 AWU WELL      4   ROW     7   COL     5   RATE     1.21871    
 AWU WELL      5   ROW     8   COL     4   RATE     1.21871    
 AWU WELL      6   ROW     8   COL     5   RATE     1.21871    
 
1
  VOLUMETRIC BUDGET FOR ENTIRE MODEL AT END OF TIME STEP    2, STRESS PERIOD   5
  ------------------------------------------------------------------------------

     CUMULATIVE VOLUMES      L**3       RATES FOR THIS TIME STEP      L**3/T
     ------------------                 ------------------------

           IN:                                      IN:
           ---                                      ---
    AWU WELLS            =     7824796.0000      AWU WELLS            =           7.3123
    DIVERSION SEGMENTS   =           0.0000      DIVERSION SEGMENTS   =           0.0000
    GW IRRIGATION        =           0.0000      GW IRRIGATION        =           0.0000
    SW IRRIGATION        =           0.0000      SW IRRIGATION        =           0.0000
    EFFICIENCY FACTOR GW =           0.0000      EFFICIENCY FACTOR GW =           0.0000
    EFFICIENCY FACTOR SW =           0.0000      EFFICIENCY FACTOR SW =           0.0000

                TOTAL IN =     7824796.0000                  TOTAL IN =           7.3123

          OUT:                                     OUT:
          ----                                     ----
    AWU WELLS            =           0.0000      AWU WELLS            =           0.0000
    DIVERSION SEGMENTS   =           0.0000      DIVERSION SEGMENTS   =           0.0000
    GW IRRIGATION        =     7824796.0000      GW IRRIGATION        =           7.3123
    SW IRRIGATION        =           0.0000      SW IRRIGATION        =           0.0000
    EFFICIENCY FACTOR GW =           0.0000      EFFICIENCY FACTOR GW =           0.0000
    EFFICIENCY FACTOR SW =           0.0000      EFFICIENCY FACTOR SW =           0.0000

               TOTAL OUT =     7824796.0000                 TOTAL OUT =           7.3123

                IN - OUT =           0.0000                  IN - OUT =           0.0000

     PERCENT DISCREPANCY =           0.00         PERCENT DISCREPANCY =           0.00



1
  VOLUMETRIC BUDGET FOR ENTIRE MODEL AT END OF TIME STEP    2, STRESS PERIOD   5
  ------------------------------------------------------------------------------

     CUMULATIVE VOLUMES      L**3       RATES FOR THIS TIME STEP      L**3/T
     ------------------                 ------------------------

           IN:                                      IN:
           ---                                      ---
             STORAGE     =    12657920.0000               STORAGE     =           7.3923
       CONSTANT HEAD     =           0.0000         CONSTANT HEAD     =           0.0000
     HEAD DEP BOUNDS     =     2328096.0000       HEAD DEP BOUNDS     =           0.2859
      STREAM LEAKAGE     =    94184024.0000        STREAM LEAKAGE     =          13.3863
        UZF RECHARGE     =       73223.9531          UZF RECHARGE     =           0.0000
               GW ET     =           0.0000                 GW ET     =           0.0000
     SURFACE LEAKAGE     =           0.0000       SURFACE LEAKAGE     =           0.0000
    AWU WELLS            =           0.0000      AWU WELLS            =           0.0000

                TOTAL IN =   109243264.0000                  TOTAL IN =          21.0644

          OUT:                                     OUT:
          ----                                     ----
             STORAGE     =    14480411.0000               STORAGE     =           3.3309
       CONSTANT HEAD     =           0.0000         CONSTANT HEAD     =           0.0000
     HEAD DEP BOUNDS     =     2349475.7500       HEAD DEP BOUNDS     =           0.2926
      STREAM LEAKAGE     =    84337480.0000        STREAM LEAKAGE     =           9.6043
        UZF RECHARGE     =           0.0000          UZF RECHARGE     =           0.0000
               GW ET     =      257623.8438                 GW ET     =           0.5246
     SURFACE LEAKAGE     =           0.0000       SURFACE LEAKAGE     =           0.0000
    AWU WELLS            =     7824796.0000      AWU WELLS            =           7.3123

               TOTAL OUT =   109249792.0000                 TOTAL OUT =          21.0646

                IN - OUT =       -6528.0000                  IN - OUT =      -2.0027E-04

     PERCENT DISCREPANCY =          -0.01         PERCENT DISCREPANCY =          -0.00






         TIME SUMMARY AT END OF TIME STEP    2 IN STRESS PERIOD    5
                    SECONDS     MINUTES      HOURS       DAYS        YEARS
                    -----------------------------------------------------------
   TIME STEP LENGTH  87600.      1460.0      24.333      1.0139     2.77588E-03
 STRESS PERIOD TIME 1.75200E+05  2920.0      48.667      2.0278     5.55175E-03
         TOTAL TIME 8.14560E+06 1.35760E+05  2262.7      94.278     0.25812    
1
 
 SOLVING FOR HEAD 
                                                   Max.-Head-Change                         Max.-Flux-Residual
  Residual-Control   Outer-Iter.   Inner-Iter.     Column Row Layer    Maximum-Head-Change  Column Row Layer    Maximum-Flux-Residual          L2-NORM 
          0                 1           2             4    7     1      -0.9654424693E-02       4    7    1        -0.5111848621E+00      0.1233651501E+01
          0                 2           2             4    7     1       0.9566630479E-03       4    7    1         0.5111830689E-01      0.1230391832E+00
          0                 3           1             4    7     1      -0.8531770600E-04       4    7    1        -0.4600649951E-02      0.1104317333E-01

    ------------------------------------------------
       NWT REQUIRED            3 OUTER ITERATIONS 
       AND A TOTAL OF          5 INNER ITERATIONS.
    ------------------------------------------------

 OUTPUT CONTROL FOR STRESS PERIOD    5   TIME STEP    3
    PRINT BUDGET
    SAVE BUDGET
 UBDSV1 SAVING "         STORAGE" ON UNIT 102 AT TIME STEP     3, STRESS PERIOD   5
 UBDSV2 SAVING "   CONSTANT HEAD" ON UNIT 102 AT TIME STEP     3, STRESS PERIOD   5
 UBDSV1 SAVING "FLOW RIGHT FACE " ON UNIT 102 AT TIME STEP     3, STRESS PERIOD   5
 UBDSV1 SAVING "FLOW FRONT FACE " ON UNIT 102 AT TIME STEP     3, STRESS PERIOD   5

  HEAD DEP BOUNDS   PERIOD    5   STEP     3
 BOUNDARY      1   LAYER   1   ROW    13   COL     1   RATE   -0.292643    
 BOUNDARY      2   LAYER   1   ROW    14   COL     9   RATE    0.285868    



 STREAM LISTING     PERIOD      5   STEP        3

 LAYER ROW COL. STREAM  RCH.  FLOW INTO     FLOW TO   FLOW OUT OF   OVRLND.     DIRECT     STREAM       STREAM     STREAM     STREAM   STREAMBED  STREAMBED
                SEG.NO.  NO.  STRM. RCH.    AQUIFER    STRM. RCH.    RUNOFF     PRECIP       ET          HEAD       DEPTH      WIDTH   CONDCTNC.   GRADIENT

   1    1    1     1     1    7.7000E+01  4.2703E-01   7.6573E+01  0.000E+00  0.000E+00  0.000E+00  1.09476E+03  1.708E+00  2.016E+01  9.070E-02  1.569E+00
   1    2    2     1     2    7.6573E+01  6.6237E-01   7.5911E+01  0.000E+00  0.000E+00  0.000E+00  1.08976E+03  1.706E+00  2.011E+01  1.408E-01  1.569E+00
   1    3    3     1     3    7.5911E+01  5.6590E-01   7.5345E+01  0.000E+00  0.000E+00  0.000E+00  1.08412E+03  1.703E+00  2.006E+01  1.203E-01  1.568E+00
   1    3    4     1     4    7.5345E+01  5.2193E-01   7.4823E+01  0.000E+00  0.000E+00  0.000E+00  1.07911E+03  1.700E+00  2.001E+01  1.110E-01  1.567E+00
   1    4    5     2     1    7.2823E+01  4.1259E-01   7.2410E+01  0.000E+00  0.000E+00  0.000E+00  1.07422E+03  2.290E+00  1.200E+01  7.800E-02  1.763E+00
   1    5    6     2     2    7.2410E+01  3.1696E-01   7.2093E+01  0.000E+00  0.000E+00  0.000E+00  1.06879E+03  2.283E+00  1.200E+01  6.000E-02  1.761E+00
   1    6    6     2     3    7.2093E+01  3.1660E-01   7.1777E+01  0.000E+00  0.000E+00  0.000E+00  1.06407E+03  2.277E+00  1.200E+01  6.000E-02  1.759E+00
   1    7    6     2     4    7.1777E+01  3.1624E-01   7.1460E+01  0.000E+00  0.000E+00  0.000E+00  1.05935E+03  2.271E+00  1.200E+01  6.000E-02  1.757E+00
   1    8    6     2     5    7.1460E+01  3.1588E-01   7.1144E+01  0.000E+00  0.000E+00  0.000E+00  1.05462E+03  2.265E+00  1.200E+01  6.000E-02  1.755E+00
   1    3    5     3     1    2.0000E+00  2.8252E-01   1.7175E+00  0.000E+00  0.000E+00  0.000E+00  1.07555E+03  1.909E+00  9.636E+00  7.227E-02  1.955E+00
   1    3    6     3     2    1.7175E+00  2.4905E-01   1.4684E+00  0.000E+00  0.000E+00  0.000E+00  1.07264E+03  1.727E+00  8.909E+00  6.682E-02  1.864E+00
   1    3    7     3     3    1.4684E+00  1.9718E-01   1.2712E+00  0.000E+00  0.000E+00  0.000E+00  1.06987E+03  1.555E+00  8.218E+00  5.547E-02  1.777E+00
   1    4    8     3     4    1.2712E+00  2.2567E-01   1.0456E+00  0.000E+00  0.000E+00  0.000E+00  1.06682E+03  1.364E+00  7.455E+00  6.709E-02  1.682E+00
   1    5    8     3     5    1.0456E+00  1.5790E-01   8.8768E-01  0.000E+00  0.000E+00  0.000E+00  1.06362E+03  1.164E+00  6.655E+00  4.991E-02  1.582E+00
   1    6    8     3     6    8.8768E-01  5.5980E-02   8.3170E-01  0.000E+00  0.000E+00  0.000E+00  1.06158E+03  1.036E+00  6.145E+00  1.844E-02  1.518E+00
   1    5   10     4     1    1.0000E+01  9.0919E-02   9.9091E+00  0.000E+00  0.000E+00  0.000E+00  1.07836E+03  6.368E-01  1.000E+01  2.500E-02  1.212E+00
   1    5    9     4     2    9.9091E+00  1.8158E-01   9.7275E+00  0.000E+00  0.000E+00  0.000E+00  1.07154E+03  6.315E-01  1.000E+01  5.000E-02  1.211E+00
   1    6    8     4     3    9.7275E+00  1.2689E-01   9.6006E+00  0.000E+00  0.000E+00  0.000E+00  1.06381E+03  6.256E-01  1.000E+01  3.500E-02  1.209E+00
   1    6    8     5     1    1.0432E+01  2.2686E-01   1.0205E+01  0.000E+00  0.000E+00  0.000E+00  1.05868E+03  6.790E-01  1.542E+01  6.166E-02  1.226E+00
   1    7    7     5     2    1.0205E+01  2.7894E-01   9.9265E+00  0.000E+00  0.000E+00  0.000E+00  1.05417E+03  6.732E-01  1.519E+01  7.594E-02  1.224E+00
   1    8    7     5     3    9.9265E+00  1.9221E-01   9.7343E+00  0.000E+00  0.000E+00  0.000E+00  1.04992E+03  6.676E-01  1.497E+01  5.241E-02  1.223E+00
   1    8    6     5     4    9.7343E+00  1.3577E-01   9.5985E+00  0.000E+00  0.000E+00  0.000E+00  1.04691E+03  6.637E-01  1.482E+01  3.706E-02  1.221E+00
   1    9    6     6     1    6.0743E+01  3.0461E-01   6.0438E+01  0.000E+00  0.000E+00  0.000E+00  1.04480E+03  2.077E+00  1.200E+01  6.000E-02  1.692E+00
   1   10    7     6     2    6.0438E+01  3.0424E-01   6.0134E+01  0.000E+00  0.000E+00  0.000E+00  1.04025E+03  2.071E+00  1.200E+01  6.000E-02  1.690E+00
   1   11    7     6     3    6.0134E+01  3.0386E-01   5.9830E+01  0.000E+00  0.000E+00  0.000E+00  1.03570E+03  2.064E+00  1.200E+01  6.000E-02  1.688E+00
   1   12    7     6     4    5.9830E+01  3.0348E-01   5.9527E+01  0.000E+00  0.000E+00  0.000E+00  1.03115E+03  2.058E+00  1.200E+01  6.000E-02  1.686E+00
   1   13    7     6     5    5.9527E+01  2.0661E-02   5.9506E+01  0.000E+00  0.000E+00  0.000E+00  1.02796E+03  2.055E+00  1.200E+01  2.400E-02  2.870E-01
   1   14    9     7     1    1.5000E+02  1.3374E+00   1.4866E+02  0.000E+00  0.000E+00  0.000E+00  1.03987E+03  2.288E+00  5.529E+01  5.593E-01  7.971E-01
   1   13    8     7     2    1.4866E+02  1.8343E+00   1.4683E+02  0.000E+00  0.000E+00  0.000E+00  1.03478E+03  2.279E+00  5.526E+01  6.148E-01  9.946E-01
   1   13    7     7     3    1.4683E+02  1.4447E+00   1.4538E+02  0.000E+00  0.000E+00  0.000E+00  1.02969E+03  2.271E+00  5.522E+01  5.585E-01  8.623E-01
   1   13    6     8     1    2.0489E+02  1.0406E+00   2.0385E+02  0.000E+00  0.000E+00  0.000E+00  1.02504E+03  3.163E+00  4.587E+01  4.674E-01  7.421E-01
   1   13    5     8     2    2.0385E+02  2.3379E-01   2.0362E+02  0.000E+00  0.000E+00  0.000E+00  1.01878E+03  3.160E+00  4.581E+01  4.669E-01  1.669E-01
   1   13    4     8     3    2.0362E+02 -2.2082E+00   2.0582E+02  0.000E+00  0.000E+00  0.000E+00  1.01254E+03  3.165E+00  4.590E+01  4.677E+00 -1.574E-01
   1   13    3     8     4    2.0582E+02 -3.4081E+00   2.0923E+02  0.000E+00  0.000E+00  0.000E+00  1.00631E+03  3.181E+00  4.613E+01  4.701E+00 -2.417E-01
   1   13    2     8     5    2.0923E+02 -2.2804E+00   2.1151E+02  0.000E+00  0.000E+00  0.000E+00  1.00007E+03  3.198E+00  4.637E+01  4.725E+00 -1.609E-01
   1   13    1     8     6    2.1151E+02 -1.7552E+00   2.1327E+02  0.000E+00  0.000E+00  0.000E+00  9.95084E+02  3.209E+00  4.653E+01  2.845E+00 -2.056E-01
   1    6    8     9     1    2.0000E+01  0.0000E+00   2.0000E+01  0.000E+00  0.000E+00  0.000E+00  1.07932E+03  8.168E-01  4.000E+00  0.000E+00  1.272E+00



 UBDSV3 SAVING "           GW ET" ON UNIT  61 AT TIME STEP     3, STRESS PERIOD   5
 UBDSV3 SAVING "    UZF RECHARGE" ON UNIT  61 AT TIME STEP     3, STRESS PERIOD   5
 UBDSV3 SAVING " SURFACE LEAKAGE" ON UNIT  61 AT TIME STEP     3, STRESS PERIOD   5
 UBDSV3 SAVING "       HORT+DUNN" ON UNIT  61 AT TIME STEP     3, STRESS PERIOD   5
 UBDSV3 SAVING "  STORAGE CHANGE" ON UNIT  61 AT TIME STEP     3, STRESS PERIOD   5


UNSATURATED ZONE PACKAGE VOLUMETRIC BUDGET FOR  TIME STEP     3 STRESS PERIOD    5
  ------------------------------------------------------------------------------



     CUMULATIVE VOLUMES      L**3       RATES FOR THIS TIME STEP      L**3/T
     ------------------                 ------------------------

           IN:                                      IN:
           ---                                      ---
        INFILTRATION =     8209333.5469          INFILTRATION =           3.5538

          OUT:                                     OUT:
          ----                                     ----
              UZF ET =       27813.5090                UZF ET =           0.1307
        UZF RECHARGE =       73224.0000          UZF RECHARGE =       0.0000E+00

            IN - OUT =     8108296.0378              IN - OUT =           3.4231

          STORAGE:                                 STORAGE:
          --------                                 --------
      STORAGE CHANGE =     8108306.5177        STORAGE CHANGE =           3.4222

 PERCENT DISCREPANCY IS DIFFERENCE BETWEEN IN-OUT MINUS CHANGE IN STORAGE
 DIVIDED BY THE AVERAGE OF IN AND OUT TIMES 100

 PERCENT DISCREPANCY =          -0.00     PERCENT DISCREPANCY =           0.03






 

 AWU WELLS                PERIOD    5   STEP   3
 AWU WELL      1   LAYER   1   ROW     6   COL     4   RATE   -0.592302    
 AWU WELL      2   LAYER   1   ROW     6   COL     5   RATE   -0.592302    
 AWU WELL      3   LAYER   1   ROW     7   COL     4   RATE   -0.592302    
 AWU WELL      4   LAYER   1   ROW     7   COL     5   RATE   -0.592302    
 AWU WELL      5   LAYER   1   ROW     8   COL     4   RATE   -0.592302    
 AWU WELL      6   LAYER   1   ROW     8   COL     5   RATE   -0.592302    
 
 

 GW IRRIGATION            PERIOD    5   STEP   3
 AWU WELL      1   ROW     6   COL     4   RATE    0.592302    
 AWU WELL      2   ROW     6   COL     5   RATE    0.592302    
 AWU WELL      3   ROW     7   COL     4   RATE    0.592302    
 AWU WELL      4   ROW     7   COL     5   RATE    0.592302    
 AWU WELL      5   ROW     8   COL     4   RATE    0.592302    
 AWU WELL      6   ROW     8   COL     5   RATE    0.592302    
 
1
  VOLUMETRIC BUDGET FOR ENTIRE MODEL AT END OF TIME STEP    3, STRESS PERIOD   5
  ------------------------------------------------------------------------------

     CUMULATIVE VOLUMES      L**3       RATES FOR THIS TIME STEP      L**3/T
     ------------------                 ------------------------

           IN:                                      IN:
           ---                                      ---
    AWU WELLS            =     8136109.5000      AWU WELLS            =           3.5538
    DIVERSION SEGMENTS   =           0.0000      DIVERSION SEGMENTS   =           0.0000
    GW IRRIGATION        =           0.0000      GW IRRIGATION        =           0.0000
    SW IRRIGATION        =           0.0000      SW IRRIGATION        =           0.0000
    EFFICIENCY FACTOR GW =           0.0000      EFFICIENCY FACTOR GW =           0.0000
    EFFICIENCY FACTOR SW =           0.0000      EFFICIENCY FACTOR SW =           0.0000

                TOTAL IN =     8136109.5000                  TOTAL IN =           3.5538

          OUT:                                     OUT:
          ----                                     ----
    AWU WELLS            =           0.0000      AWU WELLS            =           0.0000
    DIVERSION SEGMENTS   =           0.0000      DIVERSION SEGMENTS   =           0.0000
    GW IRRIGATION        =     8136109.5000      GW IRRIGATION        =           3.5538
    SW IRRIGATION        =           0.0000      SW IRRIGATION        =           0.0000
    EFFICIENCY FACTOR GW =           0.0000      EFFICIENCY FACTOR GW =           0.0000
    EFFICIENCY FACTOR SW =           0.0000      EFFICIENCY FACTOR SW =           0.0000

               TOTAL OUT =     8136109.5000                 TOTAL OUT =           3.5538

                IN - OUT =           0.0000                  IN - OUT =           0.0000

     PERCENT DISCREPANCY =           0.00         PERCENT DISCREPANCY =           0.00



1
  VOLUMETRIC BUDGET FOR ENTIRE MODEL AT END OF TIME STEP    3, STRESS PERIOD   5
  ------------------------------------------------------------------------------

     CUMULATIVE VOLUMES      L**3       RATES FOR THIS TIME STEP      L**3/T
     ------------------                 ------------------------

           IN:                                      IN:
           ---                                      ---
             STORAGE     =    12974044.0000               STORAGE     =           3.6087
       CONSTANT HEAD     =           0.0000         CONSTANT HEAD     =           0.0000
     HEAD DEP BOUNDS     =     2353138.0000       HEAD DEP BOUNDS     =           0.2859
      STREAM LEAKAGE     =    95356512.0000        STREAM LEAKAGE     =          13.3846
        UZF RECHARGE     =       73223.9531          UZF RECHARGE     =           0.0000
               GW ET     =           0.0000                 GW ET     =           0.0000
     SURFACE LEAKAGE     =           0.0000       SURFACE LEAKAGE     =           0.0000
    AWU WELLS            =           0.0000      AWU WELLS            =           0.0000

                TOTAL IN =   110756920.0000                  TOTAL IN =          17.2792

          OUT:                                     OUT:
          ----                                     ----
             STORAGE     =    14765597.0000               STORAGE     =           3.2555
       CONSTANT HEAD     =           0.0000         CONSTANT HEAD     =           0.0000
     HEAD DEP BOUNDS     =     2375111.2500       HEAD DEP BOUNDS     =           0.2926
      STREAM LEAKAGE     =    85182992.0000        STREAM LEAKAGE     =           9.6520
        UZF RECHARGE     =           0.0000          UZF RECHARGE     =           0.0000
               GW ET     =      303611.9688                 GW ET     =           0.5250
     SURFACE LEAKAGE     =           0.0000       SURFACE LEAKAGE     =           0.0000
    AWU WELLS            =     8136109.5000      AWU WELLS            =           3.5538

               TOTAL OUT =   110763416.0000                 TOTAL OUT =          17.2789

                IN - OUT =       -6496.0000                  IN - OUT =       2.5749E-04

     PERCENT DISCREPANCY =          -0.01         PERCENT DISCREPANCY =           0.00






         TIME SUMMARY AT END OF TIME STEP    3 IN STRESS PERIOD    5
                    SECONDS     MINUTES      HOURS       DAYS        YEARS
                    -----------------------------------------------------------
   TIME STEP LENGTH  87600.      1460.0      24.333      1.0139     2.77588E-03
 STRESS PERIOD TIME 2.62800E+05  4380.0      73.000      3.0417     8.32763E-03
         TOTAL TIME 8.23320E+06 1.37220E+05  2287.0      95.292     0.26089    
1
 
 SOLVING FOR HEAD 
                                                   Max.-Head-Change                         Max.-Flux-Residual
  Residual-Control   Outer-Iter.   Inner-Iter.     Column Row Layer    Maximum-Head-Change  Column Row Layer    Maximum-Flux-Residual          L2-NORM 
          0                 1           2             4    7     1      -0.8504061999E-02       4    7    1        -0.4508395685E+00      0.1139159975E+01
          0                 2           2             4    7     1       0.8426730543E-03       4    7    1         0.4508381004E-01      0.1136145535E+00
          0                 3           1             4    7     1      -0.7515177901E-04       4    7    1        -0.4057544836E-02      0.1019715945E-01

    ------------------------------------------------
       NWT REQUIRED            3 OUTER ITERATIONS 
       AND A TOTAL OF          5 INNER ITERATIONS.
    ------------------------------------------------

 OUTPUT CONTROL FOR STRESS PERIOD    5   TIME STEP    4
    PRINT BUDGET
    SAVE BUDGET
 UBDSV1 SAVING "         STORAGE" ON UNIT 102 AT TIME STEP     4, STRESS PERIOD   5
 UBDSV2 SAVING "   CONSTANT HEAD" ON UNIT 102 AT TIME STEP     4, STRESS PERIOD   5
 UBDSV1 SAVING "FLOW RIGHT FACE " ON UNIT 102 AT TIME STEP     4, STRESS PERIOD   5
 UBDSV1 SAVING "FLOW FRONT FACE " ON UNIT 102 AT TIME STEP     4, STRESS PERIOD   5

  HEAD DEP BOUNDS   PERIOD    5   STEP     4
 BOUNDARY      1   LAYER   1   ROW    13   COL     1   RATE   -0.292718    
 BOUNDARY      2   LAYER   1   ROW    14   COL     9   RATE    0.285869    



 STREAM LISTING     PERIOD      5   STEP        4

 LAYER ROW COL. STREAM  RCH.  FLOW INTO     FLOW TO   FLOW OUT OF   OVRLND.     DIRECT     STREAM       STREAM     STREAM     STREAM   STREAMBED  STREAMBED
                SEG.NO.  NO.  STRM. RCH.    AQUIFER    STRM. RCH.    RUNOFF     PRECIP       ET          HEAD       DEPTH      WIDTH   CONDCTNC.   GRADIENT

   1    1    1     1     1    7.7000E+01  4.2703E-01   7.6573E+01  0.000E+00  0.000E+00  0.000E+00  1.09476E+03  1.708E+00  2.016E+01  9.070E-02  1.569E+00
   1    2    2     1     2    7.6573E+01  6.6237E-01   7.5911E+01  0.000E+00  0.000E+00  0.000E+00  1.08976E+03  1.706E+00  2.011E+01  1.408E-01  1.569E+00
   1    3    3     1     3    7.5911E+01  5.6590E-01   7.5345E+01  0.000E+00  0.000E+00  0.000E+00  1.08412E+03  1.703E+00  2.006E+01  1.203E-01  1.568E+00
   1    3    4     1     4    7.5345E+01  5.2193E-01   7.4823E+01  0.000E+00  0.000E+00  0.000E+00  1.07911E+03  1.700E+00  2.001E+01  1.110E-01  1.567E+00
   1    4    5     2     1    7.2823E+01  4.1259E-01   7.2410E+01  0.000E+00  0.000E+00  0.000E+00  1.07422E+03  2.290E+00  1.200E+01  7.800E-02  1.763E+00
   1    5    6     2     2    7.2410E+01  3.1696E-01   7.2093E+01  0.000E+00  0.000E+00  0.000E+00  1.06879E+03  2.283E+00  1.200E+01  6.000E-02  1.761E+00
   1    6    6     2     3    7.2093E+01  3.1660E-01   7.1777E+01  0.000E+00  0.000E+00  0.000E+00  1.06407E+03  2.277E+00  1.200E+01  6.000E-02  1.759E+00
   1    7    6     2     4    7.1777E+01  3.1624E-01   7.1460E+01  0.000E+00  0.000E+00  0.000E+00  1.05935E+03  2.271E+00  1.200E+01  6.000E-02  1.757E+00
   1    8    6     2     5    7.1460E+01  3.1588E-01   7.1144E+01  0.000E+00  0.000E+00  0.000E+00  1.05462E+03  2.265E+00  1.200E+01  6.000E-02  1.755E+00
   1    3    5     3     1    2.0000E+00  2.8252E-01   1.7175E+00  0.000E+00  0.000E+00  0.000E+00  1.07555E+03  1.909E+00  9.636E+00  7.227E-02  1.955E+00
   1    3    6     3     2    1.7175E+00  2.4905E-01   1.4684E+00  0.000E+00  0.000E+00  0.000E+00  1.07264E+03  1.727E+00  8.909E+00  6.682E-02  1.864E+00
   1    3    7     3     3    1.4684E+00  1.9718E-01   1.2712E+00  0.000E+00  0.000E+00  0.000E+00  1.06987E+03  1.555E+00  8.218E+00  5.547E-02  1.777E+00
   1    4    8     3     4    1.2712E+00  2.2567E-01   1.0456E+00  0.000E+00  0.000E+00  0.000E+00  1.06682E+03  1.364E+00  7.455E+00  6.709E-02  1.682E+00
   1    5    8     3     5    1.0456E+00  1.5790E-01   8.8768E-01  0.000E+00  0.000E+00  0.000E+00  1.06362E+03  1.164E+00  6.655E+00  4.991E-02  1.582E+00
   1    6    8     3     6    8.8768E-01  5.5980E-02   8.3170E-01  0.000E+00  0.000E+00  0.000E+00  1.06158E+03  1.036E+00  6.145E+00  1.844E-02  1.518E+00
   1    5   10     4     1    1.0000E+01  9.0919E-02   9.9091E+00  0.000E+00  0.000E+00  0.000E+00  1.07836E+03  6.368E-01  1.000E+01  2.500E-02  1.212E+00
   1    5    9     4     2    9.9091E+00  1.8158E-01   9.7275E+00  0.000E+00  0.000E+00  0.000E+00  1.07154E+03  6.315E-01  1.000E+01  5.000E-02  1.211E+00
   1    6    8     4     3    9.7275E+00  1.2689E-01   9.6006E+00  0.000E+00  0.000E+00  0.000E+00  1.06381E+03  6.256E-01  1.000E+01  3.500E-02  1.209E+00
   1    6    8     5     1    1.0432E+01  2.2686E-01   1.0205E+01  0.000E+00  0.000E+00  0.000E+00  1.05868E+03  6.790E-01  1.542E+01  6.166E-02  1.226E+00
   1    7    7     5     2    1.0205E+01  2.7894E-01   9.9265E+00  0.000E+00  0.000E+00  0.000E+00  1.05417E+03  6.732E-01  1.519E+01  7.594E-02  1.224E+00
   1    8    7     5     3    9.9265E+00  1.9221E-01   9.7343E+00  0.000E+00  0.000E+00  0.000E+00  1.04992E+03  6.676E-01  1.497E+01  5.241E-02  1.223E+00
   1    8    6     5     4    9.7343E+00  1.3577E-01   9.5985E+00  0.000E+00  0.000E+00  0.000E+00  1.04691E+03  6.637E-01  1.482E+01  3.706E-02  1.221E+00
   1    9    6     6     1    6.0743E+01  3.0461E-01   6.0438E+01  0.000E+00  0.000E+00  0.000E+00  1.04480E+03  2.077E+00  1.200E+01  6.000E-02  1.692E+00
   1   10    7     6     2    6.0438E+01  3.0424E-01   6.0134E+01  0.000E+00  0.000E+00  0.000E+00  1.04025E+03  2.071E+00  1.200E+01  6.000E-02  1.690E+00
   1   11    7     6     3    6.0134E+01  3.0386E-01   5.9830E+01  0.000E+00  0.000E+00  0.000E+00  1.03570E+03  2.064E+00  1.200E+01  6.000E-02  1.688E+00
   1   12    7     6     4    5.9830E+01  3.0348E-01   5.9527E+01  0.000E+00  0.000E+00  0.000E+00  1.03115E+03  2.058E+00  1.200E+01  6.000E-02  1.686E+00
   1   13    7     6     5    5.9527E+01  2.0643E-02   5.9506E+01  0.000E+00  0.000E+00  0.000E+00  1.02796E+03  2.055E+00  1.200E+01  2.400E-02  2.867E-01
   1   14    9     7     1    1.5000E+02  1.3374E+00   1.4866E+02  0.000E+00  0.000E+00  0.000E+00  1.03987E+03  2.288E+00  5.529E+01  5.593E-01  7.971E-01
   1   13    8     7     2    1.4866E+02  1.8342E+00   1.4683E+02  0.000E+00  0.000E+00  0.000E+00  1.03478E+03  2.279E+00  5.526E+01  6.148E-01  9.945E-01
   1   13    7     7     3    1.4683E+02  1.4443E+00   1.4538E+02  0.000E+00  0.000E+00  0.000E+00  1.02969E+03  2.271E+00  5.522E+01  5.585E-01  8.621E-01
   1   13    6     8     1    2.0489E+02  1.0397E+00   2.0385E+02  0.000E+00  0.000E+00  0.000E+00  1.02504E+03  3.163E+00  4.587E+01  4.674E-01  7.415E-01
   1   13    5     8     2    2.0385E+02  2.3345E-01   2.0362E+02  0.000E+00  0.000E+00  0.000E+00  1.01878E+03  3.160E+00  4.581E+01  4.669E-01  1.667E-01
   1   13    4     8     3    2.0362E+02 -2.2204E+00   2.0584E+02  0.000E+00  0.000E+00  0.000E+00  1.01254E+03  3.165E+00  4.590E+01  4.677E+00 -1.582E-01
   1   13    3     8     4    2.0584E+02 -3.4191E+00   2.0926E+02  0.000E+00  0.000E+00  0.000E+00  1.00631E+03  3.182E+00  4.613E+01  4.701E+00 -2.424E-01
   1   13    2     8     5    2.0926E+02 -2.2961E+00   2.1155E+02  0.000E+00  0.000E+00  0.000E+00  1.00007E+03  3.198E+00  4.637E+01  4.725E+00 -1.620E-01
   1   13    1     8     6    2.1155E+02 -1.7602E+00   2.1331E+02  0.000E+00  0.000E+00  0.000E+00  9.95084E+02  3.209E+00  4.654E+01  2.845E+00 -2.062E-01
   1    6    8     9     1    2.0000E+01  0.0000E+00   2.0000E+01  0.000E+00  0.000E+00  0.000E+00  1.07932E+03  8.168E-01  4.000E+00  0.000E+00  1.272E+00



 UBDSV3 SAVING "           GW ET" ON UNIT  61 AT TIME STEP     4, STRESS PERIOD   5
 UBDSV3 SAVING "    UZF RECHARGE" ON UNIT  61 AT TIME STEP     4, STRESS PERIOD   5
 UBDSV3 SAVING " SURFACE LEAKAGE" ON UNIT  61 AT TIME STEP     4, STRESS PERIOD   5
 UBDSV3 SAVING "       HORT+DUNN" ON UNIT  61 AT TIME STEP     4, STRESS PERIOD   5
 UBDSV3 SAVING "  STORAGE CHANGE" ON UNIT  61 AT TIME STEP     4, STRESS PERIOD   5


UNSATURATED ZONE PACKAGE VOLUMETRIC BUDGET FOR  TIME STEP     4 STRESS PERIOD    5
  ------------------------------------------------------------------------------



     CUMULATIVE VOLUMES      L**3       RATES FOR THIS TIME STEP      L**3/T
     ------------------                 ------------------------

           IN:                                      IN:
           ---                                      ---
        INFILTRATION =     8493745.8750          INFILTRATION =           3.2467

          OUT:                                     OUT:
          ----                                     ----
              UZF ET =       40142.3811                UZF ET =           0.1407
        UZF RECHARGE =       73224.0000          UZF RECHARGE =       0.0000E+00

            IN - OUT =     8380379.4939              IN - OUT =           3.1060

          STORAGE:                                 STORAGE:
          --------                                 --------
      STORAGE CHANGE =     8380361.4103        STORAGE CHANGE =           3.1056

 PERCENT DISCREPANCY IS DIFFERENCE BETWEEN IN-OUT MINUS CHANGE IN STORAGE
 DIVIDED BY THE AVERAGE OF IN AND OUT TIMES 100

 PERCENT DISCREPANCY =           0.00     PERCENT DISCREPANCY =           0.01






 

 AWU WELLS                PERIOD    5   STEP   4
 AWU WELL      1   LAYER   1   ROW     6   COL     4   RATE   -0.541119    
 AWU WELL      2   LAYER   1   ROW     6   COL     5   RATE   -0.541119    
 AWU WELL      3   LAYER   1   ROW     7   COL     4   RATE   -0.541119    
 AWU WELL      4   LAYER   1   ROW     7   COL     5   RATE   -0.541119    
 AWU WELL      5   LAYER   1   ROW     8   COL     4   RATE   -0.541119    
 AWU WELL      6   LAYER   1   ROW     8   COL     5   RATE   -0.541119    
 
 

 GW IRRIGATION            PERIOD    5   STEP   4
 AWU WELL      1   ROW     6   COL     4   RATE    0.541119    
 AWU WELL      2   ROW     6   COL     5   RATE    0.541119    
 AWU WELL      3   ROW     7   COL     4   RATE    0.541119    
 AWU WELL      4   ROW     7   COL     5   RATE    0.541119    
 AWU WELL      5   ROW     8   COL     4   RATE    0.541119    
 AWU WELL      6   ROW     8   COL     5   RATE    0.541119    
 
1
  VOLUMETRIC BUDGET FOR ENTIRE MODEL AT END OF TIME STEP    4, STRESS PERIOD   5
  ------------------------------------------------------------------------------

     CUMULATIVE VOLUMES      L**3       RATES FOR THIS TIME STEP      L**3/T
     ------------------                 ------------------------

           IN:                                      IN:
           ---                                      ---
    AWU WELLS            =     8420522.0000      AWU WELLS            =           3.2467
    DIVERSION SEGMENTS   =           0.0000      DIVERSION SEGMENTS   =           0.0000
    GW IRRIGATION        =           0.0000      GW IRRIGATION        =           0.0000
    SW IRRIGATION        =           0.0000      SW IRRIGATION        =           0.0000
    EFFICIENCY FACTOR GW =           0.0000      EFFICIENCY FACTOR GW =           0.0000
    EFFICIENCY FACTOR SW =           0.0000      EFFICIENCY FACTOR SW =           0.0000

                TOTAL IN =     8420522.0000                  TOTAL IN =           3.2467

          OUT:                                     OUT:
          ----                                     ----
    AWU WELLS            =           0.0000      AWU WELLS            =           0.0000
    DIVERSION SEGMENTS   =           0.0000      DIVERSION SEGMENTS   =           0.0000
    GW IRRIGATION        =     8420522.0000      GW IRRIGATION        =           3.2467
    SW IRRIGATION        =           0.0000      SW IRRIGATION        =           0.0000
    EFFICIENCY FACTOR GW =           0.0000      EFFICIENCY FACTOR GW =           0.0000
    EFFICIENCY FACTOR SW =           0.0000      EFFICIENCY FACTOR SW =           0.0000

               TOTAL OUT =     8420522.0000                 TOTAL OUT =           3.2467

                IN - OUT =           0.0000                  IN - OUT =           0.0000

     PERCENT DISCREPANCY =           0.00         PERCENT DISCREPANCY =           0.00



1
  VOLUMETRIC BUDGET FOR ENTIRE MODEL AT END OF TIME STEP    4, STRESS PERIOD   5
  ------------------------------------------------------------------------------

     CUMULATIVE VOLUMES      L**3       RATES FOR THIS TIME STEP      L**3/T
     ------------------                 ------------------------

           IN:                                      IN:
           ---                                      ---
             STORAGE     =    13260969.0000               STORAGE     =           3.2754
       CONSTANT HEAD     =           0.0000         CONSTANT HEAD     =           0.0000
     HEAD DEP BOUNDS     =     2378180.0000       HEAD DEP BOUNDS     =           0.2859
      STREAM LEAKAGE     =    96528848.0000        STREAM LEAKAGE     =          13.3829
        UZF RECHARGE     =       73223.9531          UZF RECHARGE     =           0.0000
               GW ET     =           0.0000                 GW ET     =           0.0000
     SURFACE LEAKAGE     =           0.0000       SURFACE LEAKAGE     =           0.0000
    AWU WELLS            =           0.0000      AWU WELLS            =           0.0000

                TOTAL IN =   112241224.0000                  TOTAL IN =          16.9441

          OUT:                                     OUT:
          ----                                     ----
             STORAGE     =    15044468.0000               STORAGE     =           3.1835
       CONSTANT HEAD     =           0.0000         CONSTANT HEAD     =           0.0000
     HEAD DEP BOUNDS     =     2400753.2500       HEAD DEP BOUNDS     =           0.2927
      STREAM LEAKAGE     =    86032352.0000        STREAM LEAKAGE     =           9.6959
        UZF RECHARGE     =           0.0000          UZF RECHARGE     =           0.0000
               GW ET     =      349630.1562                 GW ET     =           0.5253
     SURFACE LEAKAGE     =           0.0000       SURFACE LEAKAGE     =           0.0000
    AWU WELLS            =     8420522.0000      AWU WELLS            =           3.2467

               TOTAL OUT =   112247728.0000                 TOTAL OUT =          16.9441

                IN - OUT =       -6504.0000                  IN - OUT =       6.8665E-05

     PERCENT DISCREPANCY =          -0.01         PERCENT DISCREPANCY =           0.00






         TIME SUMMARY AT END OF TIME STEP    4 IN STRESS PERIOD    5
                    SECONDS     MINUTES      HOURS       DAYS        YEARS
                    -----------------------------------------------------------
   TIME STEP LENGTH  87600.      1460.0      24.333      1.0139     2.77588E-03
 STRESS PERIOD TIME 3.50400E+05  5840.0      97.333      4.0556     1.11035E-02
         TOTAL TIME 8.32080E+06 1.38680E+05  2311.3      96.306     0.26367    
1
 
 SOLVING FOR HEAD 
                                                   Max.-Head-Change                         Max.-Flux-Residual
  Residual-Control   Outer-Iter.   Inner-Iter.     Column Row Layer    Maximum-Head-Change  Column Row Layer    Maximum-Flux-Residual          L2-NORM 
          0                 1           2             2    2     1       0.7762706612E-02       2    2    1         0.4055792059E+00      0.1064882784E+01
          0                 2           2             2    2     1      -0.7692160056E-03       2    2    1        -0.4055807238E-01      0.1062124694E+00
          0                 3           1             2    2     1       0.6860064529E-04       2    2    1         0.3650225483E-02      0.9533319399E-02

    ------------------------------------------------
       NWT REQUIRED            3 OUTER ITERATIONS 
       AND A TOTAL OF          5 INNER ITERATIONS.
    ------------------------------------------------

 NO OUTPUT CONTROL FOR STRESS PERIOD    5   TIME STEP    5
 
 SOLVING FOR HEAD 
                                                   Max.-Head-Change                         Max.-Flux-Residual
  Residual-Control   Outer-Iter.   Inner-Iter.     Column Row Layer    Maximum-Head-Change  Column Row Layer    Maximum-Flux-Residual          L2-NORM 
          0                 1           2             2    2     1       0.7714900595E-02       2    2    1         0.4030635419E+00      0.1102203643E+01
          0                 2           2             2    2     1      -0.7644788223E-03       2    2    1        -0.4030650330E-01      0.1094740820E+00
          0                 3           1             2    2     1       0.6817817126E-04       2    2    1         0.3627584278E-02      0.9782546059E-02

    ------------------------------------------------
       NWT REQUIRED            3 OUTER ITERATIONS 
       AND A TOTAL OF          5 INNER ITERATIONS.
    ------------------------------------------------

 OUTPUT CONTROL FOR STRESS PERIOD    5   TIME STEP    6
    PRINT BUDGET
    SAVE BUDGET
 UBDSV1 SAVING "         STORAGE" ON UNIT 102 AT TIME STEP     6, STRESS PERIOD   5
 UBDSV2 SAVING "   CONSTANT HEAD" ON UNIT 102 AT TIME STEP     6, STRESS PERIOD   5
 UBDSV1 SAVING "FLOW RIGHT FACE " ON UNIT 102 AT TIME STEP     6, STRESS PERIOD   5
 UBDSV1 SAVING "FLOW FRONT FACE " ON UNIT 102 AT TIME STEP     6, STRESS PERIOD   5

  HEAD DEP BOUNDS   PERIOD    5   STEP     6
 BOUNDARY      1   LAYER   1   ROW    13   COL     1   RATE   -0.292904    
 BOUNDARY      2   LAYER   1   ROW    14   COL     9   RATE    0.285871    



 STREAM LISTING     PERIOD      5   STEP        6

 LAYER ROW COL. STREAM  RCH.  FLOW INTO     FLOW TO   FLOW OUT OF   OVRLND.     DIRECT     STREAM       STREAM     STREAM     STREAM   STREAMBED  STREAMBED
                SEG.NO.  NO.  STRM. RCH.    AQUIFER    STRM. RCH.    RUNOFF     PRECIP       ET          HEAD       DEPTH      WIDTH   CONDCTNC.   GRADIENT

   1    1    1     1     1    7.7000E+01  4.2703E-01   7.6573E+01  0.000E+00  0.000E+00  0.000E+00  1.09476E+03  1.708E+00  2.016E+01  9.070E-02  1.569E+00
   1    2    2     1     2    7.6573E+01  6.6237E-01   7.5911E+01  0.000E+00  0.000E+00  0.000E+00  1.08976E+03  1.706E+00  2.011E+01  1.408E-01  1.569E+00
   1    3    3     1     3    7.5911E+01  5.6590E-01   7.5345E+01  0.000E+00  0.000E+00  0.000E+00  1.08412E+03  1.703E+00  2.006E+01  1.203E-01  1.568E+00
   1    3    4     1     4    7.5345E+01  5.2193E-01   7.4823E+01  0.000E+00  0.000E+00  0.000E+00  1.07911E+03  1.700E+00  2.001E+01  1.110E-01  1.567E+00
   1    4    5     2     1    7.2823E+01  4.1259E-01   7.2410E+01  0.000E+00  0.000E+00  0.000E+00  1.07422E+03  2.290E+00  1.200E+01  7.800E-02  1.763E+00
   1    5    6     2     2    7.2410E+01  3.1696E-01   7.2093E+01  0.000E+00  0.000E+00  0.000E+00  1.06879E+03  2.283E+00  1.200E+01  6.000E-02  1.761E+00
   1    6    6     2     3    7.2093E+01  3.1660E-01   7.1777E+01  0.000E+00  0.000E+00  0.000E+00  1.06407E+03  2.277E+00  1.200E+01  6.000E-02  1.759E+00
   1    7    6     2     4    7.1777E+01  3.1624E-01   7.1460E+01  0.000E+00  0.000E+00  0.000E+00  1.05935E+03  2.271E+00  1.200E+01  6.000E-02  1.757E+00
   1    8    6     2     5    7.1460E+01  3.1588E-01   7.1144E+01  0.000E+00  0.000E+00  0.000E+00  1.05462E+03  2.265E+00  1.200E+01  6.000E-02  1.755E+00
   1    3    5     3     1    2.0000E+00  2.8252E-01   1.7175E+00  0.000E+00  0.000E+00  0.000E+00  1.07555E+03  1.909E+00  9.636E+00  7.227E-02  1.955E+00
   1    3    6     3     2    1.7175E+00  2.4905E-01   1.4684E+00  0.000E+00  0.000E+00  0.000E+00  1.07264E+03  1.727E+00  8.909E+00  6.682E-02  1.864E+00
   1    3    7     3     3    1.4684E+00  1.9718E-01   1.2712E+00  0.000E+00  0.000E+00  0.000E+00  1.06987E+03  1.555E+00  8.218E+00  5.547E-02  1.777E+00
   1    4    8     3     4    1.2712E+00  2.2567E-01   1.0456E+00  0.000E+00  0.000E+00  0.000E+00  1.06682E+03  1.364E+00  7.455E+00  6.709E-02  1.682E+00
   1    5    8     3     5    1.0456E+00  1.5790E-01   8.8768E-01  0.000E+00  0.000E+00  0.000E+00  1.06362E+03  1.164E+00  6.655E+00  4.991E-02  1.582E+00
   1    6    8     3     6    8.8768E-01  5.5980E-02   8.3170E-01  0.000E+00  0.000E+00  0.000E+00  1.06158E+03  1.036E+00  6.145E+00  1.844E-02  1.518E+00
   1    5   10     4     1    1.0000E+01  9.0919E-02   9.9091E+00  0.000E+00  0.000E+00  0.000E+00  1.07836E+03  6.368E-01  1.000E+01  2.500E-02  1.212E+00
   1    5    9     4     2    9.9091E+00  1.8158E-01   9.7275E+00  0.000E+00  0.000E+00  0.000E+00  1.07154E+03  6.315E-01  1.000E+01  5.000E-02  1.211E+00
   1    6    8     4     3    9.7275E+00  1.2689E-01   9.6006E+00  0.000E+00  0.000E+00  0.000E+00  1.06381E+03  6.256E-01  1.000E+01  3.500E-02  1.209E+00
   1    6    8     5     1    1.0432E+01  2.2686E-01   1.0205E+01  0.000E+00  0.000E+00  0.000E+00  1.05868E+03  6.790E-01  1.542E+01  6.166E-02  1.226E+00
   1    7    7     5     2    1.0205E+01  2.7894E-01   9.9265E+00  0.000E+00  0.000E+00  0.000E+00  1.05417E+03  6.732E-01  1.519E+01  7.594E-02  1.224E+00
   1    8    7     5     3    9.9265E+00  1.9221E-01   9.7343E+00  0.000E+00  0.000E+00  0.000E+00  1.04992E+03  6.676E-01  1.497E+01  5.241E-02  1.223E+00
   1    8    6     5     4    9.7343E+00  1.3577E-01   9.5985E+00  0.000E+00  0.000E+00  0.000E+00  1.04691E+03  6.637E-01  1.482E+01  3.706E-02  1.221E+00
   1    9    6     6     1    6.6679E+01  3.1180E-01   6.6367E+01  0.000E+00  0.000E+00  0.000E+00  1.04492E+03  2.197E+00  1.200E+01  6.000E-02  1.732E+00
   1   10    7     6     2    6.6367E+01  3.1143E-01   6.6056E+01  0.000E+00  0.000E+00  0.000E+00  1.04037E+03  2.190E+00  1.200E+01  6.000E-02  1.730E+00
   1   11    7     6     3    6.6056E+01  3.1106E-01   6.5745E+01  0.000E+00  0.000E+00  0.000E+00  1.03582E+03  2.184E+00  1.200E+01  6.000E-02  1.728E+00
   1   12    7     6     4    6.5745E+01  3.1068E-01   6.5434E+01  0.000E+00  0.000E+00  0.000E+00  1.03127E+03  2.178E+00  1.200E+01  6.000E-02  1.726E+00
   1   13    7     6     5    6.5434E+01  2.3486E-02   6.5411E+01  0.000E+00  0.000E+00  0.000E+00  1.02808E+03  2.175E+00  1.200E+01  2.400E-02  3.262E-01
   1   14    9     7     1    1.5000E+02  1.3375E+00   1.4866E+02  0.000E+00  0.000E+00  0.000E+00  1.03987E+03  2.288E+00  5.529E+01  5.593E-01  7.971E-01
   1   13    8     7     2    1.4866E+02  1.8338E+00   1.4683E+02  0.000E+00  0.000E+00  0.000E+00  1.03478E+03  2.279E+00  5.526E+01  6.148E-01  9.943E-01
   1   13    7     7     3    1.4683E+02  1.4434E+00   1.4539E+02  0.000E+00  0.000E+00  0.000E+00  1.02969E+03  2.271E+00  5.522E+01  5.585E-01  8.615E-01
   1   13    6     8     1    2.1080E+02  1.0651E+00   2.0973E+02  0.000E+00  0.000E+00  0.000E+00  1.02507E+03  3.197E+00  4.636E+01  4.724E-01  7.515E-01
   1   13    5     8     2    2.0973E+02  2.5103E-01   2.0948E+02  0.000E+00  0.000E+00  0.000E+00  1.01882E+03  3.193E+00  4.630E+01  4.719E-01  1.773E-01
   1   13    4     8     3    2.0948E+02 -2.1177E+00   2.1160E+02  0.000E+00  0.000E+00  0.000E+00  1.01257E+03  3.199E+00  4.638E+01  4.726E+00 -1.493E-01
   1   13    3     8     4    2.1160E+02 -3.3289E+00   2.1493E+02  0.000E+00  0.000E+00  0.000E+00  1.00634E+03  3.214E+00  4.661E+01  4.749E+00 -2.336E-01
   1   13    2     8     5    2.1493E+02 -2.2064E+00   2.1713E+02  0.000E+00  0.000E+00  0.000E+00  1.00010E+03  3.230E+00  4.683E+01  4.772E+00 -1.541E-01
   1   13    1     8     6    2.1713E+02 -1.7017E+00   2.1883E+02  0.000E+00  0.000E+00  0.000E+00  9.95116E+02  3.241E+00  4.699E+01  2.873E+00 -1.974E-01
   1    6    8     9     1    1.4064E+01  0.0000E+00   1.4064E+01  0.000E+00  0.000E+00  0.000E+00  1.07916E+03  6.613E-01  4.000E+00  0.000E+00  1.220E+00



 UBDSV3 SAVING "           GW ET" ON UNIT  61 AT TIME STEP     6, STRESS PERIOD   5
 UBDSV3 SAVING "    UZF RECHARGE" ON UNIT  61 AT TIME STEP     6, STRESS PERIOD   5
 UBDSV3 SAVING " SURFACE LEAKAGE" ON UNIT  61 AT TIME STEP     6, STRESS PERIOD   5
 UBDSV3 SAVING "       HORT+DUNN" ON UNIT  61 AT TIME STEP     6, STRESS PERIOD   5
 UBDSV3 SAVING "  STORAGE CHANGE" ON UNIT  61 AT TIME STEP     6, STRESS PERIOD   5


UNSATURATED ZONE PACKAGE VOLUMETRIC BUDGET FOR  TIME STEP     6 STRESS PERIOD    5
  ------------------------------------------------------------------------------



     CUMULATIVE VOLUMES      L**3       RATES FOR THIS TIME STEP      L**3/T
     ------------------                 ------------------------

           IN:                                      IN:
           ---                                      ---
        INFILTRATION =     9001124.6250          INFILTRATION =           2.8017

          OUT:                                     OUT:
          ----                                     ----
              UZF ET =       67190.1028                UZF ET =           0.1584
        UZF RECHARGE =       73224.0000          UZF RECHARGE =       0.0000E+00

            IN - OUT =     8860710.5222              IN - OUT =           2.6434

          STORAGE:                                 STORAGE:
          --------                                 --------
      STORAGE CHANGE =     8860640.4669        STORAGE CHANGE =           2.6431

 PERCENT DISCREPANCY IS DIFFERENCE BETWEEN IN-OUT MINUS CHANGE IN STORAGE
 DIVIDED BY THE AVERAGE OF IN AND OUT TIMES 100

 PERCENT DISCREPANCY =           0.00     PERCENT DISCREPANCY =           0.01






 

 AWU WELLS                PERIOD    5   STEP   6
 AWU WELL      1   LAYER   1   ROW     6   COL     4   RATE   -0.466955    
 AWU WELL      2   LAYER   1   ROW     6   COL     5   RATE   -0.466955    
 AWU WELL      3   LAYER   1   ROW     7   COL     4   RATE   -0.466955    
 AWU WELL      4   LAYER   1   ROW     7   COL     5   RATE   -0.466955    
 AWU WELL      5   LAYER   1   ROW     8   COL     4   RATE   -0.466955    
 AWU WELL      6   LAYER   1   ROW     8   COL     5   RATE   -0.466955    
 
 

 GW IRRIGATION            PERIOD    5   STEP   6
 AWU WELL      1   ROW     6   COL     4   RATE    0.466955    
 AWU WELL      2   ROW     6   COL     5   RATE    0.466955    
 AWU WELL      3   ROW     7   COL     4   RATE    0.466955    
 AWU WELL      4   ROW     7   COL     5   RATE    0.466955    
 AWU WELL      5   ROW     8   COL     4   RATE    0.466955    
 AWU WELL      6   ROW     8   COL     5   RATE    0.466955    
 
1
  VOLUMETRIC BUDGET FOR ENTIRE MODEL AT END OF TIME STEP    6, STRESS PERIOD   5
  ------------------------------------------------------------------------------

     CUMULATIVE VOLUMES      L**3       RATES FOR THIS TIME STEP      L**3/T
     ------------------                 ------------------------

           IN:                                      IN:
           ---                                      ---
    AWU WELLS            =     8927900.0000      AWU WELLS            =           2.8017
    DIVERSION SEGMENTS   =           0.0000      DIVERSION SEGMENTS   =           0.0000
    GW IRRIGATION        =           0.0000      GW IRRIGATION        =           0.0000
    SW IRRIGATION        =           0.0000      SW IRRIGATION        =           0.0000
    EFFICIENCY FACTOR GW =           0.0000      EFFICIENCY FACTOR GW =           0.0000
    EFFICIENCY FACTOR SW =           0.0000      EFFICIENCY FACTOR SW =           0.0000

                TOTAL IN =     8927900.0000                  TOTAL IN =           2.8017

          OUT:                                     OUT:
          ----                                     ----
    AWU WELLS            =           0.0000      AWU WELLS            =           0.0000
    DIVERSION SEGMENTS   =           0.0000      DIVERSION SEGMENTS   =           0.0000
    GW IRRIGATION        =     8927900.0000      GW IRRIGATION        =           2.8017
    SW IRRIGATION        =           0.0000      SW IRRIGATION        =           0.0000
    EFFICIENCY FACTOR GW =           0.0000      EFFICIENCY FACTOR GW =           0.0000
    EFFICIENCY FACTOR SW =           0.0000      EFFICIENCY FACTOR SW =           0.0000

               TOTAL OUT =     8927900.0000                 TOTAL OUT =           2.8017

                IN - OUT =           0.0000                  IN - OUT =           0.0000

     PERCENT DISCREPANCY =           0.00         PERCENT DISCREPANCY =           0.00



1
  VOLUMETRIC BUDGET FOR ENTIRE MODEL AT END OF TIME STEP    6, STRESS PERIOD   5
  ------------------------------------------------------------------------------

     CUMULATIVE VOLUMES      L**3       RATES FOR THIS TIME STEP      L**3/T
     ------------------                 ------------------------

           IN:                                      IN:
           ---                                      ---
             STORAGE     =    13767220.0000               STORAGE     =           2.7838
       CONSTANT HEAD     =           0.0000         CONSTANT HEAD     =           0.0000
     HEAD DEP BOUNDS     =     2428264.5000       HEAD DEP BOUNDS     =           0.2859
      STREAM LEAKAGE     =    98879808.0000        STREAM LEAKAGE     =          13.4563
        UZF RECHARGE     =       73223.9531          UZF RECHARGE     =           0.0000
               GW ET     =           0.0000                 GW ET     =           0.0000
     SURFACE LEAKAGE     =           0.0000       SURFACE LEAKAGE     =           0.0000
    AWU WELLS            =           0.0000      AWU WELLS            =           0.0000

                TOTAL IN =   115148520.0000                  TOTAL IN =          16.5260

          OUT:                                     OUT:
          ----                                     ----
             STORAGE     =    15628622.0000               STORAGE     =           3.5511
       CONSTANT HEAD     =           0.0000         CONSTANT HEAD     =           0.0000
     HEAD DEP BOUNDS     =     2452060.0000       HEAD DEP BOUNDS     =           0.2929
      STREAM LEAKAGE     =    87704720.0000        STREAM LEAKAGE     =           9.3546
        UZF RECHARGE     =           0.0000          UZF RECHARGE     =           0.0000
               GW ET     =      441767.6562                 GW ET     =           0.5262
     SURFACE LEAKAGE     =           0.0000       SURFACE LEAKAGE     =           0.0000
    AWU WELLS            =     8927900.0000      AWU WELLS            =           2.8017

               TOTAL OUT =   115155072.0000                 TOTAL OUT =          16.5265

                IN - OUT =       -6552.0000                  IN - OUT =      -5.5122E-04

     PERCENT DISCREPANCY =          -0.01         PERCENT DISCREPANCY =          -0.00






         TIME SUMMARY AT END OF TIME STEP    6 IN STRESS PERIOD    5
                    SECONDS     MINUTES      HOURS       DAYS        YEARS
                    -----------------------------------------------------------
   TIME STEP LENGTH  87600.      1460.0      24.333      1.0139     2.77588E-03
 STRESS PERIOD TIME 5.25600E+05  8760.0      146.00      6.0833     1.66553E-02
         TOTAL TIME 8.49600E+06 1.41600E+05  2360.0      98.333     0.26922    
1
 
 SOLVING FOR HEAD 
                                                   Max.-Head-Change                         Max.-Flux-Residual
  Residual-Control   Outer-Iter.   Inner-Iter.     Column Row Layer    Maximum-Head-Change  Column Row Layer    Maximum-Flux-Residual          L2-NORM 
          0                 1           2             2   13     1       0.1037072173E-01       2   13    1         0.5882897941E+00      0.1401126787E+01
          0                 2           2             2   13     1      -0.9805131675E-03       2   13    1        -0.5612449682E-01      0.1378188351E+00
          0                 3           1             4   13     1       0.8473774300E-04       4   13    1         0.4974229793E-02      0.1228131830E-01

    ------------------------------------------------
       NWT REQUIRED            3 OUTER ITERATIONS 
       AND A TOTAL OF          5 INNER ITERATIONS.
    ------------------------------------------------

 OUTPUT CONTROL FOR STRESS PERIOD    5   TIME STEP    7
    PRINT BUDGET
    SAVE BUDGET
 UBDSV1 SAVING "         STORAGE" ON UNIT 102 AT TIME STEP     7, STRESS PERIOD   5
 UBDSV2 SAVING "   CONSTANT HEAD" ON UNIT 102 AT TIME STEP     7, STRESS PERIOD   5
 UBDSV1 SAVING "FLOW RIGHT FACE " ON UNIT 102 AT TIME STEP     7, STRESS PERIOD   5
 UBDSV1 SAVING "FLOW FRONT FACE " ON UNIT 102 AT TIME STEP     7, STRESS PERIOD   5

  HEAD DEP BOUNDS   PERIOD    5   STEP     7
 BOUNDARY      1   LAYER   1   ROW    13   COL     1   RATE   -0.293122    
 BOUNDARY      2   LAYER   1   ROW    14   COL     9   RATE    0.285871    



 STREAM LISTING     PERIOD      5   STEP        7

 LAYER ROW COL. STREAM  RCH.  FLOW INTO     FLOW TO   FLOW OUT OF   OVRLND.     DIRECT     STREAM       STREAM     STREAM     STREAM   STREAMBED  STREAMBED
                SEG.NO.  NO.  STRM. RCH.    AQUIFER    STRM. RCH.    RUNOFF     PRECIP       ET          HEAD       DEPTH      WIDTH   CONDCTNC.   GRADIENT

   1    1    1     1     1    7.7000E+01  4.2703E-01   7.6573E+01  0.000E+00  0.000E+00  0.000E+00  1.09476E+03  1.708E+00  2.016E+01  9.070E-02  1.569E+00
   1    2    2     1     2    7.6573E+01  6.6237E-01   7.5911E+01  0.000E+00  0.000E+00  0.000E+00  1.08976E+03  1.706E+00  2.011E+01  1.408E-01  1.569E+00
   1    3    3     1     3    7.5911E+01  5.6590E-01   7.5345E+01  0.000E+00  0.000E+00  0.000E+00  1.08412E+03  1.703E+00  2.006E+01  1.203E-01  1.568E+00
   1    3    4     1     4    7.5345E+01  5.2193E-01   7.4823E+01  0.000E+00  0.000E+00  0.000E+00  1.07911E+03  1.700E+00  2.001E+01  1.110E-01  1.567E+00
   1    4    5     2     1    7.2823E+01  4.1259E-01   7.2410E+01  0.000E+00  0.000E+00  0.000E+00  1.07422E+03  2.290E+00  1.200E+01  7.800E-02  1.763E+00
   1    5    6     2     2    7.2410E+01  3.1696E-01   7.2093E+01  0.000E+00  0.000E+00  0.000E+00  1.06879E+03  2.283E+00  1.200E+01  6.000E-02  1.761E+00
   1    6    6     2     3    7.2093E+01  3.1660E-01   7.1777E+01  0.000E+00  0.000E+00  0.000E+00  1.06407E+03  2.277E+00  1.200E+01  6.000E-02  1.759E+00
   1    7    6     2     4    7.1777E+01  3.1624E-01   7.1460E+01  0.000E+00  0.000E+00  0.000E+00  1.05935E+03  2.271E+00  1.200E+01  6.000E-02  1.757E+00
   1    8    6     2     5    7.1460E+01  3.1588E-01   7.1144E+01  0.000E+00  0.000E+00  0.000E+00  1.05462E+03  2.265E+00  1.200E+01  6.000E-02  1.755E+00
   1    3    5     3     1    2.0000E+00  2.8252E-01   1.7175E+00  0.000E+00  0.000E+00  0.000E+00  1.07555E+03  1.909E+00  9.636E+00  7.227E-02  1.955E+00
   1    3    6     3     2    1.7175E+00  2.4905E-01   1.4684E+00  0.000E+00  0.000E+00  0.000E+00  1.07264E+03  1.727E+00  8.909E+00  6.682E-02  1.864E+00
   1    3    7     3     3    1.4684E+00  1.9718E-01   1.2712E+00  0.000E+00  0.000E+00  0.000E+00  1.06987E+03  1.555E+00  8.218E+00  5.547E-02  1.777E+00
   1    4    8     3     4    1.2712E+00  2.2567E-01   1.0456E+00  0.000E+00  0.000E+00  0.000E+00  1.06682E+03  1.364E+00  7.455E+00  6.709E-02  1.682E+00
   1    5    8     3     5    1.0456E+00  1.5790E-01   8.8768E-01  0.000E+00  0.000E+00  0.000E+00  1.06362E+03  1.164E+00  6.655E+00  4.991E-02  1.582E+00
   1    6    8     3     6    8.8768E-01  5.5980E-02   8.3170E-01  0.000E+00  0.000E+00  0.000E+00  1.06158E+03  1.036E+00  6.145E+00  1.844E-02  1.518E+00
   1    5   10     4     1    1.0000E+01  9.0919E-02   9.9091E+00  0.000E+00  0.000E+00  0.000E+00  1.07836E+03  6.368E-01  1.000E+01  2.500E-02  1.212E+00
   1    5    9     4     2    9.9091E+00  1.8158E-01   9.7275E+00  0.000E+00  0.000E+00  0.000E+00  1.07154E+03  6.315E-01  1.000E+01  5.000E-02  1.211E+00
   1    6    8     4     3    9.7275E+00  1.2689E-01   9.6006E+00  0.000E+00  0.000E+00  0.000E+00  1.06381E+03  6.256E-01  1.000E+01  3.500E-02  1.209E+00
   1    6    8     5     1    1.0432E+01  2.2686E-01   1.0205E+01  0.000E+00  0.000E+00  0.000E+00  1.05868E+03  6.790E-01  1.542E+01  6.166E-02  1.226E+00
   1    7    7     5     2    1.0205E+01  2.7894E-01   9.9265E+00  0.000E+00  0.000E+00  0.000E+00  1.05417E+03  6.732E-01  1.519E+01  7.594E-02  1.224E+00
   1    8    7     5     3    9.9265E+00  1.9221E-01   9.7343E+00  0.000E+00  0.000E+00  0.000E+00  1.04992E+03  6.676E-01  1.497E+01  5.241E-02  1.223E+00
   1    8    6     5     4    9.7343E+00  1.3577E-01   9.5985E+00  0.000E+00  0.000E+00  0.000E+00  1.04691E+03  6.637E-01  1.482E+01  3.706E-02  1.221E+00
   1    9    6     6     1    8.0743E+01  3.2786E-01   8.0415E+01  0.000E+00  0.000E+00  0.000E+00  1.04519E+03  2.464E+00  1.200E+01  6.000E-02  1.821E+00
   1   10    7     6     2    8.0415E+01  3.2750E-01   8.0088E+01  0.000E+00  0.000E+00  0.000E+00  1.04064E+03  2.458E+00  1.200E+01  6.000E-02  1.819E+00
   1   11    7     6     3    8.0088E+01  3.2714E-01   7.9761E+01  0.000E+00  0.000E+00  0.000E+00  1.03609E+03  2.452E+00  1.200E+01  6.000E-02  1.817E+00
   1   12    7     6     4    7.9761E+01  3.2678E-01   7.9434E+01  0.000E+00  0.000E+00  0.000E+00  1.03154E+03  2.446E+00  1.200E+01  6.000E-02  1.815E+00
   1   13    7     6     5    7.9434E+01  2.9902E-02   7.9404E+01  0.000E+00  0.000E+00  0.000E+00  1.02835E+03  2.443E+00  1.200E+01  2.400E-02  4.153E-01
   1   14    9     7     1    1.5000E+02  1.3375E+00   1.4866E+02  0.000E+00  0.000E+00  0.000E+00  1.03987E+03  2.288E+00  5.529E+01  5.593E-01  7.971E-01
   1   13    8     7     2    1.4866E+02  1.8337E+00   1.4683E+02  0.000E+00  0.000E+00  0.000E+00  1.03478E+03  2.279E+00  5.526E+01  6.148E-01  9.942E-01
   1   13    7     7     3    1.4683E+02  1.4429E+00   1.4539E+02  0.000E+00  0.000E+00  0.000E+00  1.02969E+03  2.271E+00  5.522E+01  5.585E-01  8.612E-01
   1   13    6     8     1    2.2479E+02  1.1273E+00   2.2366E+02  0.000E+00  0.000E+00  0.000E+00  1.02515E+03  3.275E+00  4.749E+01  4.839E-01  7.765E-01
   1   13    5     8     2    2.2366E+02  2.9385E-01   2.2337E+02  0.000E+00  0.000E+00  0.000E+00  1.01890E+03  3.271E+00  4.743E+01  4.834E-01  2.026E-01
   1   13    4     8     3    2.2337E+02 -1.8401E+00   2.2521E+02  0.000E+00  0.000E+00  0.000E+00  1.01265E+03  3.276E+00  4.750E+01  4.840E+00 -1.267E-01
   1   13    3     8     4    2.2521E+02 -3.0828E+00   2.2829E+02  0.000E+00  0.000E+00  0.000E+00  1.00641E+03  3.289E+00  4.769E+01  4.860E+00 -2.115E-01
   1   13    2     8     5    2.2829E+02 -1.9470E+00   2.3024E+02  0.000E+00  0.000E+00  0.000E+00  1.00018E+03  3.303E+00  4.789E+01  4.880E+00 -1.330E-01
   1   13    1     8     6    2.3024E+02 -1.5466E+00   2.3179E+02  0.000E+00  0.000E+00  0.000E+00  9.95187E+02  3.312E+00  4.802E+01  2.936E+00 -1.756E-01
   1    6    8     9     1    0.0000E+00  0.0000E+00   0.0000E+00  0.000E+00  0.000E+00  0.000E+00  1.07850E+03  0.000E+00  4.000E+00  0.000E+00  1.000E+00



 UBDSV3 SAVING "           GW ET" ON UNIT  61 AT TIME STEP     7, STRESS PERIOD   5
 UBDSV3 SAVING "    UZF RECHARGE" ON UNIT  61 AT TIME STEP     7, STRESS PERIOD   5
 UBDSV3 SAVING " SURFACE LEAKAGE" ON UNIT  61 AT TIME STEP     7, STRESS PERIOD   5
 UBDSV3 SAVING "       HORT+DUNN" ON UNIT  61 AT TIME STEP     7, STRESS PERIOD   5
 UBDSV3 SAVING "  STORAGE CHANGE" ON UNIT  61 AT TIME STEP     7, STRESS PERIOD   5


UNSATURATED ZONE PACKAGE VOLUMETRIC BUDGET FOR  TIME STEP     7 STRESS PERIOD    5
  ------------------------------------------------------------------------------



     CUMULATIVE VOLUMES      L**3       RATES FOR THIS TIME STEP      L**3/T
     ------------------                 ------------------------

           IN:                                      IN:
           ---                                      ---
        INFILTRATION =     9234351.3750          INFILTRATION =           2.6624

          OUT:                                     OUT:
          ----                                     ----
              UZF ET =       81630.0623                UZF ET =           0.1648
        UZF RECHARGE =       73224.0000          UZF RECHARGE =       0.0000E+00

            IN - OUT =     9079497.3127              IN - OUT =           2.4976

          STORAGE:                                 STORAGE:
          --------                                 --------
      STORAGE CHANGE =     9079403.2039        STORAGE CHANGE =           2.4973

 PERCENT DISCREPANCY IS DIFFERENCE BETWEEN IN-OUT MINUS CHANGE IN STORAGE
 DIVIDED BY THE AVERAGE OF IN AND OUT TIMES 100

 PERCENT DISCREPANCY =           0.00     PERCENT DISCREPANCY =           0.01






 

 AWU WELLS                PERIOD    5   STEP   7
 AWU WELL      1   LAYER   1   ROW     6   COL     4   RATE   -0.443734    
 AWU WELL      2   LAYER   1   ROW     6   COL     5   RATE   -0.443734    
 AWU WELL      3   LAYER   1   ROW     7   COL     4   RATE   -0.443734    
 AWU WELL      4   LAYER   1   ROW     7   COL     5   RATE   -0.443734    
 AWU WELL      5   LAYER   1   ROW     8   COL     4   RATE   -0.443734    
 AWU WELL      6   LAYER   1   ROW     8   COL     5   RATE   -0.443734    
 
 

 GW IRRIGATION            PERIOD    5   STEP   7
 AWU WELL      1   ROW     6   COL     4   RATE    0.443734    
 AWU WELL      2   ROW     6   COL     5   RATE    0.443734    
 AWU WELL      3   ROW     7   COL     4   RATE    0.443734    
 AWU WELL      4   ROW     7   COL     5   RATE    0.443734    
 AWU WELL      5   ROW     8   COL     4   RATE    0.443734    
 AWU WELL      6   ROW     8   COL     5   RATE    0.443734    
 
1
  VOLUMETRIC BUDGET FOR ENTIRE MODEL AT END OF TIME STEP    7, STRESS PERIOD   5
  ------------------------------------------------------------------------------

     CUMULATIVE VOLUMES      L**3       RATES FOR THIS TIME STEP      L**3/T
     ------------------                 ------------------------

           IN:                                      IN:
           ---                                      ---
    AWU WELLS            =     9161127.0000      AWU WELLS            =           2.6624
    DIVERSION SEGMENTS   =           0.0000      DIVERSION SEGMENTS   =           0.0000
    GW IRRIGATION        =           0.0000      GW IRRIGATION        =           0.0000
    SW IRRIGATION        =           0.0000      SW IRRIGATION        =           0.0000
    EFFICIENCY FACTOR GW =           0.0000      EFFICIENCY FACTOR GW =           0.0000
    EFFICIENCY FACTOR SW =           0.0000      EFFICIENCY FACTOR SW =           0.0000

                TOTAL IN =     9161127.0000                  TOTAL IN =           2.6624

          OUT:                                     OUT:
          ----                                     ----
    AWU WELLS            =           0.0000      AWU WELLS            =           0.0000
    DIVERSION SEGMENTS   =           0.0000      DIVERSION SEGMENTS   =           0.0000
    GW IRRIGATION        =     9161127.0000      GW IRRIGATION        =           2.6624
    SW IRRIGATION        =           0.0000      SW IRRIGATION        =           0.0000
    EFFICIENCY FACTOR GW =           0.0000      EFFICIENCY FACTOR GW =           0.0000
    EFFICIENCY FACTOR SW =           0.0000      EFFICIENCY FACTOR SW =           0.0000

               TOTAL OUT =     9161127.0000                 TOTAL OUT =           2.6624

                IN - OUT =           0.0000                  IN - OUT =           0.0000

     PERCENT DISCREPANCY =           0.00         PERCENT DISCREPANCY =           0.00



1
  VOLUMETRIC BUDGET FOR ENTIRE MODEL AT END OF TIME STEP    7, STRESS PERIOD   5
  ------------------------------------------------------------------------------

     CUMULATIVE VOLUMES      L**3       RATES FOR THIS TIME STEP      L**3/T
     ------------------                 ------------------------

           IN:                                      IN:
           ---                                      ---
             STORAGE     =    13996906.0000               STORAGE     =           2.6220
       CONSTANT HEAD     =           0.0000         CONSTANT HEAD     =           0.0000
     HEAD DEP BOUNDS     =     2453306.7500       HEAD DEP BOUNDS     =           0.2859
      STREAM LEAKAGE     =   100073920.0000        STREAM LEAKAGE     =          13.6314
        UZF RECHARGE     =       73223.9531          UZF RECHARGE     =           0.0000
               GW ET     =           0.0000                 GW ET     =           0.0000
     SURFACE LEAKAGE     =           0.0000       SURFACE LEAKAGE     =           0.0000
    AWU WELLS            =           0.0000      AWU WELLS            =           0.0000

                TOTAL IN =   116597360.0000                  TOTAL IN =          16.5393

          OUT:                                     OUT:
          ----                                     ----
             STORAGE     =    16035228.0000               STORAGE     =           4.6416
       CONSTANT HEAD     =           0.0000         CONSTANT HEAD     =           0.0000
     HEAD DEP BOUNDS     =     2477737.5000       HEAD DEP BOUNDS     =           0.2931
      STREAM LEAKAGE     =    88442000.0000        STREAM LEAKAGE     =           8.4165
        UZF RECHARGE     =           0.0000          UZF RECHARGE     =           0.0000
               GW ET     =      487942.6250                 GW ET     =           0.5271
     SURFACE LEAKAGE     =           0.0000       SURFACE LEAKAGE     =           0.0000
    AWU WELLS            =     9161127.0000      AWU WELLS            =           2.6624

               TOTAL OUT =   116604040.0000                 TOTAL OUT =          16.5407

                IN - OUT =       -6680.0000                  IN - OUT =      -1.4763E-03

     PERCENT DISCREPANCY =          -0.01         PERCENT DISCREPANCY =          -0.01






         TIME SUMMARY AT END OF TIME STEP    7 IN STRESS PERIOD    5
                    SECONDS     MINUTES      HOURS       DAYS        YEARS
                    -----------------------------------------------------------
   TIME STEP LENGTH  87600.      1460.0      24.333      1.0139     2.77588E-03
 STRESS PERIOD TIME 6.13200E+05  10220.      170.33      7.0972     1.94311E-02
         TOTAL TIME 8.58360E+06 1.43060E+05  2384.3      99.347     0.27200    
1
 
 SOLVING FOR HEAD 
                                                   Max.-Head-Change                         Max.-Flux-Residual
  Residual-Control   Outer-Iter.   Inner-Iter.     Column Row Layer    Maximum-Head-Change  Column Row Layer    Maximum-Flux-Residual          L2-NORM 
          0                 1           2             2   13     1       0.9535960772E-02       2   13    1         0.5408605800E+00      0.1321322634E+01
          0                 2           2             2   13     1      -0.9020337139E-03       2   13    1        -0.5162689479E-01      0.1299904864E+00
          0                 3           1             4   13     1       0.7645243039E-04       4   13    1         0.4487101679E-02      0.1149690051E-01

    ------------------------------------------------
       NWT REQUIRED            3 OUTER ITERATIONS 
       AND A TOTAL OF          5 INNER ITERATIONS.
    ------------------------------------------------

 OUTPUT CONTROL FOR STRESS PERIOD    5   TIME STEP    8
    PRINT BUDGET
    SAVE BUDGET
 UBDSV1 SAVING "         STORAGE" ON UNIT 102 AT TIME STEP     8, STRESS PERIOD   5
 UBDSV2 SAVING "   CONSTANT HEAD" ON UNIT 102 AT TIME STEP     8, STRESS PERIOD   5
 UBDSV1 SAVING "FLOW RIGHT FACE " ON UNIT 102 AT TIME STEP     8, STRESS PERIOD   5
 UBDSV1 SAVING "FLOW FRONT FACE " ON UNIT 102 AT TIME STEP     8, STRESS PERIOD   5

  HEAD DEP BOUNDS   PERIOD    5   STEP     8
 BOUNDARY      1   LAYER   1   ROW    13   COL     1   RATE   -0.293330    
 BOUNDARY      2   LAYER   1   ROW    14   COL     9   RATE    0.285872    



 STREAM LISTING     PERIOD      5   STEP        8

 LAYER ROW COL. STREAM  RCH.  FLOW INTO     FLOW TO   FLOW OUT OF   OVRLND.     DIRECT     STREAM       STREAM     STREAM     STREAM   STREAMBED  STREAMBED
                SEG.NO.  NO.  STRM. RCH.    AQUIFER    STRM. RCH.    RUNOFF     PRECIP       ET          HEAD       DEPTH      WIDTH   CONDCTNC.   GRADIENT

   1    1    1     1     1    7.7000E+01  4.2703E-01   7.6573E+01  0.000E+00  0.000E+00  0.000E+00  1.09476E+03  1.708E+00  2.016E+01  9.070E-02  1.569E+00
   1    2    2     1     2    7.6573E+01  6.6237E-01   7.5911E+01  0.000E+00  0.000E+00  0.000E+00  1.08976E+03  1.706E+00  2.011E+01  1.408E-01  1.569E+00
   1    3    3     1     3    7.5911E+01  5.6590E-01   7.5345E+01  0.000E+00  0.000E+00  0.000E+00  1.08412E+03  1.703E+00  2.006E+01  1.203E-01  1.568E+00
   1    3    4     1     4    7.5345E+01  5.2193E-01   7.4823E+01  0.000E+00  0.000E+00  0.000E+00  1.07911E+03  1.700E+00  2.001E+01  1.110E-01  1.567E+00
   1    4    5     2     1    7.2823E+01  4.1259E-01   7.2410E+01  0.000E+00  0.000E+00  0.000E+00  1.07422E+03  2.290E+00  1.200E+01  7.800E-02  1.763E+00
   1    5    6     2     2    7.2410E+01  3.1696E-01   7.2093E+01  0.000E+00  0.000E+00  0.000E+00  1.06879E+03  2.283E+00  1.200E+01  6.000E-02  1.761E+00
   1    6    6     2     3    7.2093E+01  3.1660E-01   7.1777E+01  0.000E+00  0.000E+00  0.000E+00  1.06407E+03  2.277E+00  1.200E+01  6.000E-02  1.759E+00
   1    7    6     2     4    7.1777E+01  3.1624E-01   7.1460E+01  0.000E+00  0.000E+00  0.000E+00  1.05935E+03  2.271E+00  1.200E+01  6.000E-02  1.757E+00
   1    8    6     2     5    7.1460E+01  3.1588E-01   7.1144E+01  0.000E+00  0.000E+00  0.000E+00  1.05462E+03  2.265E+00  1.200E+01  6.000E-02  1.755E+00
   1    3    5     3     1    2.0000E+00  2.8252E-01   1.7175E+00  0.000E+00  0.000E+00  0.000E+00  1.07555E+03  1.909E+00  9.636E+00  7.227E-02  1.955E+00
   1    3    6     3     2    1.7175E+00  2.4905E-01   1.4684E+00  0.000E+00  0.000E+00  0.000E+00  1.07264E+03  1.727E+00  8.909E+00  6.682E-02  1.864E+00
   1    3    7     3     3    1.4684E+00  1.9718E-01   1.2712E+00  0.000E+00  0.000E+00  0.000E+00  1.06987E+03  1.555E+00  8.218E+00  5.547E-02  1.777E+00
   1    4    8     3     4    1.2712E+00  2.2567E-01   1.0456E+00  0.000E+00  0.000E+00  0.000E+00  1.06682E+03  1.364E+00  7.455E+00  6.709E-02  1.682E+00
   1    5    8     3     5    1.0456E+00  1.5790E-01   8.8768E-01  0.000E+00  0.000E+00  0.000E+00  1.06362E+03  1.164E+00  6.655E+00  4.991E-02  1.582E+00
   1    6    8     3     6    8.8768E-01  5.5980E-02   8.3170E-01  0.000E+00  0.000E+00  0.000E+00  1.06158E+03  1.036E+00  6.145E+00  1.844E-02  1.518E+00
   1    5   10     4     1    1.0000E+01  9.0919E-02   9.9091E+00  0.000E+00  0.000E+00  0.000E+00  1.07836E+03  6.368E-01  1.000E+01  2.500E-02  1.212E+00
   1    5    9     4     2    9.9091E+00  1.8158E-01   9.7275E+00  0.000E+00  0.000E+00  0.000E+00  1.07154E+03  6.315E-01  1.000E+01  5.000E-02  1.211E+00
   1    6    8     4     3    9.7275E+00  1.2689E-01   9.6006E+00  0.000E+00  0.000E+00  0.000E+00  1.06381E+03  6.256E-01  1.000E+01  3.500E-02  1.209E+00
   1    6    8     5     1    1.0432E+01  2.2686E-01   1.0205E+01  0.000E+00  0.000E+00  0.000E+00  1.05868E+03  6.790E-01  1.542E+01  6.166E-02  1.226E+00
   1    7    7     5     2    1.0205E+01  2.7894E-01   9.9265E+00  0.000E+00  0.000E+00  0.000E+00  1.05417E+03  6.732E-01  1.519E+01  7.594E-02  1.224E+00
   1    8    7     5     3    9.9265E+00  1.9221E-01   9.7343E+00  0.000E+00  0.000E+00  0.000E+00  1.04992E+03  6.676E-01  1.497E+01  5.241E-02  1.223E+00
   1    8    6     5     4    9.7343E+00  1.3577E-01   9.5985E+00  0.000E+00  0.000E+00  0.000E+00  1.04691E+03  6.637E-01  1.482E+01  3.706E-02  1.221E+00
   1    9    6     6     1    8.0743E+01  3.2786E-01   8.0415E+01  0.000E+00  0.000E+00  0.000E+00  1.04519E+03  2.464E+00  1.200E+01  6.000E-02  1.821E+00
   1   10    7     6     2    8.0415E+01  3.2750E-01   8.0088E+01  0.000E+00  0.000E+00  0.000E+00  1.04064E+03  2.458E+00  1.200E+01  6.000E-02  1.819E+00
   1   11    7     6     3    8.0088E+01  3.2714E-01   7.9761E+01  0.000E+00  0.000E+00  0.000E+00  1.03609E+03  2.452E+00  1.200E+01  6.000E-02  1.817E+00
   1   12    7     6     4    7.9761E+01  3.2678E-01   7.9434E+01  0.000E+00  0.000E+00  0.000E+00  1.03154E+03  2.446E+00  1.200E+01  6.000E-02  1.815E+00
   1   13    7     6     5    7.9434E+01  2.9880E-02   7.9404E+01  0.000E+00  0.000E+00  0.000E+00  1.02835E+03  2.443E+00  1.200E+01  2.400E-02  4.150E-01
   1   14    9     7     1    1.5000E+02  1.3375E+00   1.4866E+02  0.000E+00  0.000E+00  0.000E+00  1.03987E+03  2.288E+00  5.529E+01  5.593E-01  7.971E-01
   1   13    8     7     2    1.4866E+02  1.8335E+00   1.4683E+02  0.000E+00  0.000E+00  0.000E+00  1.03478E+03  2.279E+00  5.526E+01  6.148E-01  9.942E-01
   1   13    7     7     3    1.4683E+02  1.4424E+00   1.4539E+02  0.000E+00  0.000E+00  0.000E+00  1.02969E+03  2.271E+00  5.522E+01  5.585E-01  8.609E-01
   1   13    6     8     1    2.2479E+02  1.1259E+00   2.2366E+02  0.000E+00  0.000E+00  0.000E+00  1.02515E+03  3.275E+00  4.749E+01  4.839E-01  7.755E-01
   1   13    5     8     2    2.2366E+02  2.9289E-01   2.2337E+02  0.000E+00  0.000E+00  0.000E+00  1.01890E+03  3.271E+00  4.743E+01  4.834E-01  2.020E-01
   1   13    4     8     3    2.2337E+02 -1.8786E+00   2.2525E+02  0.000E+00  0.000E+00  0.000E+00  1.01265E+03  3.276E+00  4.750E+01  4.840E+00 -1.294E-01
   1   13    3     8     4    2.2525E+02 -3.1181E+00   2.2837E+02  0.000E+00  0.000E+00  0.000E+00  1.00641E+03  3.289E+00  4.769E+01  4.860E+00 -2.139E-01
   1   13    2     8     5    2.2837E+02 -1.9872E+00   2.3036E+02  0.000E+00  0.000E+00  0.000E+00  1.00018E+03  3.303E+00  4.790E+01  4.881E+00 -1.357E-01
   1   13    1     8     6    2.3036E+02 -1.5611E+00   2.3192E+02  0.000E+00  0.000E+00  0.000E+00  9.95188E+02  3.313E+00  4.803E+01  2.937E+00 -1.772E-01
   1    6    8     9     1    0.0000E+00  0.0000E+00   0.0000E+00  0.000E+00  0.000E+00  0.000E+00  1.07850E+03  0.000E+00  4.000E+00  0.000E+00  1.000E+00



 UBDSV3 SAVING "           GW ET" ON UNIT  61 AT TIME STEP     8, STRESS PERIOD   5
 UBDSV3 SAVING "    UZF RECHARGE" ON UNIT  61 AT TIME STEP     8, STRESS PERIOD   5
 UBDSV3 SAVING " SURFACE LEAKAGE" ON UNIT  61 AT TIME STEP     8, STRESS PERIOD   5
 UBDSV3 SAVING "       HORT+DUNN" ON UNIT  61 AT TIME STEP     8, STRESS PERIOD   5
 UBDSV3 SAVING "  STORAGE CHANGE" ON UNIT  61 AT TIME STEP     8, STRESS PERIOD   5


UNSATURATED ZONE PACKAGE VOLUMETRIC BUDGET FOR  TIME STEP     8 STRESS PERIOD    5
  ------------------------------------------------------------------------------



     CUMULATIVE VOLUMES      L**3       RATES FOR THIS TIME STEP      L**3/T
     ------------------                 ------------------------

           IN:                                      IN:
           ---                                      ---
        INFILTRATION =     9457960.8281          INFILTRATION =           2.5526

          OUT:                                     OUT:
          ----                                     ----
              UZF ET =       96550.0364                UZF ET =           0.1703
        UZF RECHARGE =       73224.0000          UZF RECHARGE =       0.0000E+00

            IN - OUT =     9288186.7917              IN - OUT =           2.3823

          STORAGE:                                 STORAGE:
          --------                                 --------
      STORAGE CHANGE =     9288069.5118        STORAGE CHANGE =           2.3820

 PERCENT DISCREPANCY IS DIFFERENCE BETWEEN IN-OUT MINUS CHANGE IN STORAGE
 DIVIDED BY THE AVERAGE OF IN AND OUT TIMES 100

 PERCENT DISCREPANCY =           0.00     PERCENT DISCREPANCY =           0.01






 

 AWU WELLS                PERIOD    5   STEP   8
 AWU WELL      1   LAYER   1   ROW     6   COL     4   RATE   -0.425437    
 AWU WELL      2   LAYER   1   ROW     6   COL     5   RATE   -0.425437    
 AWU WELL      3   LAYER   1   ROW     7   COL     4   RATE   -0.425437    
 AWU WELL      4   LAYER   1   ROW     7   COL     5   RATE   -0.425437    
 AWU WELL      5   LAYER   1   ROW     8   COL     4   RATE   -0.425437    
 AWU WELL      6   LAYER   1   ROW     8   COL     5   RATE   -0.425437    
 
 

 GW IRRIGATION            PERIOD    5   STEP   8
 AWU WELL      1   ROW     6   COL     4   RATE    0.425437    
 AWU WELL      2   ROW     6   COL     5   RATE    0.425437    
 AWU WELL      3   ROW     7   COL     4   RATE    0.425437    
 AWU WELL      4   ROW     7   COL     5   RATE    0.425437    
 AWU WELL      5   ROW     8   COL     4   RATE    0.425437    
 AWU WELL      6   ROW     8   COL     5   RATE    0.425437    
 
1
  VOLUMETRIC BUDGET FOR ENTIRE MODEL AT END OF TIME STEP    8, STRESS PERIOD   5
  ------------------------------------------------------------------------------

     CUMULATIVE VOLUMES      L**3       RATES FOR THIS TIME STEP      L**3/T
     ------------------                 ------------------------

           IN:                                      IN:
           ---                                      ---
    AWU WELLS            =     9384736.0000      AWU WELLS            =           2.5526
    DIVERSION SEGMENTS   =           0.0000      DIVERSION SEGMENTS   =           0.0000
    GW IRRIGATION        =           0.0000      GW IRRIGATION        =           0.0000
    SW IRRIGATION        =           0.0000      SW IRRIGATION        =           0.0000
    EFFICIENCY FACTOR GW =           0.0000      EFFICIENCY FACTOR GW =           0.0000
    EFFICIENCY FACTOR SW =           0.0000      EFFICIENCY FACTOR SW =           0.0000

                TOTAL IN =     9384736.0000                  TOTAL IN =           2.5526

          OUT:                                     OUT:
          ----                                     ----
    AWU WELLS            =           0.0000      AWU WELLS            =           0.0000
    DIVERSION SEGMENTS   =           0.0000      DIVERSION SEGMENTS   =           0.0000
    GW IRRIGATION        =     9384736.0000      GW IRRIGATION        =           2.5526
    SW IRRIGATION        =           0.0000      SW IRRIGATION        =           0.0000
    EFFICIENCY FACTOR GW =           0.0000      EFFICIENCY FACTOR GW =           0.0000
    EFFICIENCY FACTOR SW =           0.0000      EFFICIENCY FACTOR SW =           0.0000

               TOTAL OUT =     9384736.0000                 TOTAL OUT =           2.5526

                IN - OUT =           0.0000                  IN - OUT =           0.0000

     PERCENT DISCREPANCY =           0.00         PERCENT DISCREPANCY =           0.00



1
  VOLUMETRIC BUDGET FOR ENTIRE MODEL AT END OF TIME STEP    8, STRESS PERIOD   5
  ------------------------------------------------------------------------------

     CUMULATIVE VOLUMES      L**3       RATES FOR THIS TIME STEP      L**3/T
     ------------------                 ------------------------

           IN:                                      IN:
           ---                                      ---
             STORAGE     =    14215206.0000               STORAGE     =           2.4920
       CONSTANT HEAD     =           0.0000         CONSTANT HEAD     =           0.0000
     HEAD DEP BOUNDS     =     2478349.2500       HEAD DEP BOUNDS     =           0.2859
      STREAM LEAKAGE     =   101267760.0000        STREAM LEAKAGE     =          13.6283
        UZF RECHARGE     =       73223.9531          UZF RECHARGE     =           0.0000
               GW ET     =           0.0000                 GW ET     =           0.0000
     SURFACE LEAKAGE     =           0.0000       SURFACE LEAKAGE     =           0.0000
    AWU WELLS            =           0.0000      AWU WELLS            =           0.0000

                TOTAL IN =   118034536.0000                  TOTAL IN =          16.4062

          OUT:                                     OUT:
          ----                                     ----
             STORAGE     =    16428433.0000               STORAGE     =           4.4886
       CONSTANT HEAD     =           0.0000         CONSTANT HEAD     =           0.0000
     HEAD DEP BOUNDS     =     2503433.2500       HEAD DEP BOUNDS     =           0.2933
      STREAM LEAKAGE     =    89190544.0000        STREAM LEAKAGE     =           8.5450
        UZF RECHARGE     =           0.0000          UZF RECHARGE     =           0.0000
               GW ET     =      534195.8750                 GW ET     =           0.5280
     SURFACE LEAKAGE     =           0.0000       SURFACE LEAKAGE     =           0.0000
    AWU WELLS            =     9384736.0000      AWU WELLS            =           2.5526

               TOTAL OUT =   118041336.0000                 TOTAL OUT =          16.4076

                IN - OUT =       -6800.0000                  IN - OUT =      -1.4381E-03

     PERCENT DISCREPANCY =          -0.01         PERCENT DISCREPANCY =          -0.01






         TIME SUMMARY AT END OF TIME STEP    8 IN STRESS PERIOD    5
                    SECONDS     MINUTES      HOURS       DAYS        YEARS
                    -----------------------------------------------------------
   TIME STEP LENGTH  87600.      1460.0      24.333      1.0139     2.77588E-03
 STRESS PERIOD TIME 7.00800E+05  11680.      194.67      8.1111     2.22070E-02
         TOTAL TIME 8.67120E+06 1.44520E+05  2408.7      100.36     0.27477    
1
 
 SOLVING FOR HEAD 
                                                   Max.-Head-Change                         Max.-Flux-Residual
  Residual-Control   Outer-Iter.   Inner-Iter.     Column Row Layer    Maximum-Head-Change  Column Row Layer    Maximum-Flux-Residual          L2-NORM 
          0                 1           2             2   13     1       0.8769383813E-02       2   13    1         0.4973082202E+00      0.1250431048E+01
          0                 2           2             2   13     1      -0.8298300887E-03       2   13    1        -0.4748700300E-01      0.1231314172E+00
          0                 3           1             2   13     1       0.7024908471E-04       2   13    1         0.4056365462E-02      0.1090118734E-01

    ------------------------------------------------
       NWT REQUIRED            3 OUTER ITERATIONS 
       AND A TOTAL OF          5 INNER ITERATIONS.
    ------------------------------------------------

 OUTPUT CONTROL FOR STRESS PERIOD    5   TIME STEP    9
    PRINT BUDGET
    SAVE BUDGET
 UBDSV1 SAVING "         STORAGE" ON UNIT 102 AT TIME STEP     9, STRESS PERIOD   5
 UBDSV2 SAVING "   CONSTANT HEAD" ON UNIT 102 AT TIME STEP     9, STRESS PERIOD   5
 UBDSV1 SAVING "FLOW RIGHT FACE " ON UNIT 102 AT TIME STEP     9, STRESS PERIOD   5
 UBDSV1 SAVING "FLOW FRONT FACE " ON UNIT 102 AT TIME STEP     9, STRESS PERIOD   5

  HEAD DEP BOUNDS   PERIOD    5   STEP     9
 BOUNDARY      1   LAYER   1   ROW    13   COL     1   RATE   -0.293530    
 BOUNDARY      2   LAYER   1   ROW    14   COL     9   RATE    0.285873    



 STREAM LISTING     PERIOD      5   STEP        9

 LAYER ROW COL. STREAM  RCH.  FLOW INTO     FLOW TO   FLOW OUT OF   OVRLND.     DIRECT     STREAM       STREAM     STREAM     STREAM   STREAMBED  STREAMBED
                SEG.NO.  NO.  STRM. RCH.    AQUIFER    STRM. RCH.    RUNOFF     PRECIP       ET          HEAD       DEPTH      WIDTH   CONDCTNC.   GRADIENT

   1    1    1     1     1    7.7000E+01  4.2703E-01   7.6573E+01  0.000E+00  0.000E+00  0.000E+00  1.09476E+03  1.708E+00  2.016E+01  9.070E-02  1.569E+00
   1    2    2     1     2    7.6573E+01  6.6237E-01   7.5911E+01  0.000E+00  0.000E+00  0.000E+00  1.08976E+03  1.706E+00  2.011E+01  1.408E-01  1.569E+00
   1    3    3     1     3    7.5911E+01  5.6590E-01   7.5345E+01  0.000E+00  0.000E+00  0.000E+00  1.08412E+03  1.703E+00  2.006E+01  1.203E-01  1.568E+00
   1    3    4     1     4    7.5345E+01  5.2193E-01   7.4823E+01  0.000E+00  0.000E+00  0.000E+00  1.07911E+03  1.700E+00  2.001E+01  1.110E-01  1.567E+00
   1    4    5     2     1    7.2823E+01  4.1259E-01   7.2410E+01  0.000E+00  0.000E+00  0.000E+00  1.07422E+03  2.290E+00  1.200E+01  7.800E-02  1.763E+00
   1    5    6     2     2    7.2410E+01  3.1696E-01   7.2093E+01  0.000E+00  0.000E+00  0.000E+00  1.06879E+03  2.283E+00  1.200E+01  6.000E-02  1.761E+00
   1    6    6     2     3    7.2093E+01  3.1660E-01   7.1777E+01  0.000E+00  0.000E+00  0.000E+00  1.06407E+03  2.277E+00  1.200E+01  6.000E-02  1.759E+00
   1    7    6     2     4    7.1777E+01  3.1624E-01   7.1460E+01  0.000E+00  0.000E+00  0.000E+00  1.05935E+03  2.271E+00  1.200E+01  6.000E-02  1.757E+00
   1    8    6     2     5    7.1460E+01  3.1588E-01   7.1144E+01  0.000E+00  0.000E+00  0.000E+00  1.05462E+03  2.265E+00  1.200E+01  6.000E-02  1.755E+00
   1    3    5     3     1    2.0000E+00  2.8252E-01   1.7175E+00  0.000E+00  0.000E+00  0.000E+00  1.07555E+03  1.909E+00  9.636E+00  7.227E-02  1.955E+00
   1    3    6     3     2    1.7175E+00  2.4905E-01   1.4684E+00  0.000E+00  0.000E+00  0.000E+00  1.07264E+03  1.727E+00  8.909E+00  6.682E-02  1.864E+00
   1    3    7     3     3    1.4684E+00  1.9718E-01   1.2712E+00  0.000E+00  0.000E+00  0.000E+00  1.06987E+03  1.555E+00  8.218E+00  5.547E-02  1.777E+00
   1    4    8     3     4    1.2712E+00  2.2567E-01   1.0456E+00  0.000E+00  0.000E+00  0.000E+00  1.06682E+03  1.364E+00  7.455E+00  6.709E-02  1.682E+00
   1    5    8     3     5    1.0456E+00  1.5790E-01   8.8768E-01  0.000E+00  0.000E+00  0.000E+00  1.06362E+03  1.164E+00  6.655E+00  4.991E-02  1.582E+00
   1    6    8     3     6    8.8768E-01  5.5980E-02   8.3170E-01  0.000E+00  0.000E+00  0.000E+00  1.06158E+03  1.036E+00  6.145E+00  1.844E-02  1.518E+00
   1    5   10     4     1    1.0000E+01  9.0919E-02   9.9091E+00  0.000E+00  0.000E+00  0.000E+00  1.07836E+03  6.368E-01  1.000E+01  2.500E-02  1.212E+00
   1    5    9     4     2    9.9091E+00  1.8158E-01   9.7275E+00  0.000E+00  0.000E+00  0.000E+00  1.07154E+03  6.315E-01  1.000E+01  5.000E-02  1.211E+00
   1    6    8     4     3    9.7275E+00  1.2689E-01   9.6006E+00  0.000E+00  0.000E+00  0.000E+00  1.06381E+03  6.256E-01  1.000E+01  3.500E-02  1.209E+00
   1    6    8     5     1    1.0432E+01  2.2686E-01   1.0205E+01  0.000E+00  0.000E+00  0.000E+00  1.05868E+03  6.790E-01  1.542E+01  6.166E-02  1.226E+00
   1    7    7     5     2    1.0205E+01  2.7894E-01   9.9265E+00  0.000E+00  0.000E+00  0.000E+00  1.05417E+03  6.732E-01  1.519E+01  7.594E-02  1.224E+00
   1    8    7     5     3    9.9265E+00  1.9221E-01   9.7343E+00  0.000E+00  0.000E+00  0.000E+00  1.04992E+03  6.676E-01  1.497E+01  5.241E-02  1.223E+00
   1    8    6     5     4    9.7343E+00  1.3577E-01   9.5985E+00  0.000E+00  0.000E+00  0.000E+00  1.04691E+03  6.637E-01  1.482E+01  3.706E-02  1.221E+00
   1    9    6     6     1    8.0743E+01  3.2786E-01   8.0415E+01  0.000E+00  0.000E+00  0.000E+00  1.04519E+03  2.464E+00  1.200E+01  6.000E-02  1.821E+00
   1   10    7     6     2    8.0415E+01  3.2750E-01   8.0088E+01  0.000E+00  0.000E+00  0.000E+00  1.04064E+03  2.458E+00  1.200E+01  6.000E-02  1.819E+00
   1   11    7     6     3    8.0088E+01  3.2714E-01   7.9761E+01  0.000E+00  0.000E+00  0.000E+00  1.03609E+03  2.452E+00  1.200E+01  6.000E-02  1.817E+00
   1   12    7     6     4    7.9761E+01  3.2678E-01   7.9434E+01  0.000E+00  0.000E+00  0.000E+00  1.03154E+03  2.446E+00  1.200E+01  6.000E-02  1.815E+00
   1   13    7     6     5    7.9434E+01  2.9857E-02   7.9404E+01  0.000E+00  0.000E+00  0.000E+00  1.02835E+03  2.443E+00  1.200E+01  2.400E-02  4.147E-01
   1   14    9     7     1    1.5000E+02  1.3375E+00   1.4866E+02  0.000E+00  0.000E+00  0.000E+00  1.03987E+03  2.288E+00  5.529E+01  5.593E-01  7.971E-01
   1   13    8     7     2    1.4866E+02  1.8334E+00   1.4683E+02  0.000E+00  0.000E+00  0.000E+00  1.03478E+03  2.279E+00  5.526E+01  6.148E-01  9.941E-01
   1   13    7     7     3    1.4683E+02  1.4419E+00   1.4539E+02  0.000E+00  0.000E+00  0.000E+00  1.02969E+03  2.271E+00  5.522E+01  5.585E-01  8.606E-01
   1   13    6     8     1    2.2479E+02  1.1245E+00   2.2367E+02  0.000E+00  0.000E+00  0.000E+00  1.02515E+03  3.275E+00  4.749E+01  4.839E-01  7.745E-01
   1   13    5     8     2    2.2367E+02  2.9191E-01   2.2337E+02  0.000E+00  0.000E+00  0.000E+00  1.01890E+03  3.271E+00  4.743E+01  4.834E-01  2.013E-01
   1   13    4     8     3    2.2337E+02 -1.9134E+00   2.2529E+02  0.000E+00  0.000E+00  0.000E+00  1.01265E+03  3.276E+00  4.750E+01  4.840E+00 -1.318E-01
   1   13    3     8     4    2.2529E+02 -3.1505E+00   2.2844E+02  0.000E+00  0.000E+00  0.000E+00  1.00641E+03  3.290E+00  4.770E+01  4.861E+00 -2.161E-01
   1   13    2     8     5    2.2844E+02 -2.0243E+00   2.3046E+02  0.000E+00  0.000E+00  0.000E+00  1.00018E+03  3.304E+00  4.790E+01  4.881E+00 -1.382E-01
   1   13    1     8     6    2.3046E+02 -1.5750E+00   2.3204E+02  0.000E+00  0.000E+00  0.000E+00  9.95188E+02  3.313E+00  4.804E+01  2.937E+00 -1.787E-01
   1    6    8     9     1    0.0000E+00  0.0000E+00   0.0000E+00  0.000E+00  0.000E+00  0.000E+00  1.07850E+03  0.000E+00  4.000E+00  0.000E+00  1.000E+00



 UBDSV3 SAVING "           GW ET" ON UNIT  61 AT TIME STEP     9, STRESS PERIOD   5
 UBDSV3 SAVING "    UZF RECHARGE" ON UNIT  61 AT TIME STEP     9, STRESS PERIOD   5
 UBDSV3 SAVING " SURFACE LEAKAGE" ON UNIT  61 AT TIME STEP     9, STRESS PERIOD   5
 UBDSV3 SAVING "       HORT+DUNN" ON UNIT  61 AT TIME STEP     9, STRESS PERIOD   5
 UBDSV3 SAVING "  STORAGE CHANGE" ON UNIT  61 AT TIME STEP     9, STRESS PERIOD   5


UNSATURATED ZONE PACKAGE VOLUMETRIC BUDGET FOR  TIME STEP     9 STRESS PERIOD    5
  ------------------------------------------------------------------------------



     CUMULATIVE VOLUMES      L**3       RATES FOR THIS TIME STEP      L**3/T
     ------------------                 ------------------------

           IN:                                      IN:
           ---                                      ---
        INFILTRATION =     9672888.7031          INFILTRATION =           2.4535

          OUT:                                     OUT:
          ----                                     ----
              UZF ET =      111931.5813                UZF ET =           0.1756
        UZF RECHARGE =       73224.0000          UZF RECHARGE =       0.0000E+00

            IN - OUT =     9487733.1218              IN - OUT =           2.2779

          STORAGE:                                 STORAGE:
          --------                                 --------
      STORAGE CHANGE =     9487593.4029        STORAGE CHANGE =           2.2777

 PERCENT DISCREPANCY IS DIFFERENCE BETWEEN IN-OUT MINUS CHANGE IN STORAGE
 DIVIDED BY THE AVERAGE OF IN AND OUT TIMES 100

 PERCENT DISCREPANCY =           0.00     PERCENT DISCREPANCY =           0.01






 

 AWU WELLS                PERIOD    5   STEP   9
 AWU WELL      1   LAYER   1   ROW     6   COL     4   RATE   -0.408919    
 AWU WELL      2   LAYER   1   ROW     6   COL     5   RATE   -0.408919    
 AWU WELL      3   LAYER   1   ROW     7   COL     4   RATE   -0.408919    
 AWU WELL      4   LAYER   1   ROW     7   COL     5   RATE   -0.408919    
 AWU WELL      5   LAYER   1   ROW     8   COL     4   RATE   -0.408919    
 AWU WELL      6   LAYER   1   ROW     8   COL     5   RATE   -0.408919    
 
 

 GW IRRIGATION            PERIOD    5   STEP   9
 AWU WELL      1   ROW     6   COL     4   RATE    0.408919    
 AWU WELL      2   ROW     6   COL     5   RATE    0.408919    
 AWU WELL      3   ROW     7   COL     4   RATE    0.408919    
 AWU WELL      4   ROW     7   COL     5   RATE    0.408919    
 AWU WELL      5   ROW     8   COL     4   RATE    0.408919    
 AWU WELL      6   ROW     8   COL     5   RATE    0.408919    
 
1
  VOLUMETRIC BUDGET FOR ENTIRE MODEL AT END OF TIME STEP    9, STRESS PERIOD   5
  ------------------------------------------------------------------------------

     CUMULATIVE VOLUMES      L**3       RATES FOR THIS TIME STEP      L**3/T
     ------------------                 ------------------------

           IN:                                      IN:
           ---                                      ---
    AWU WELLS            =     9599664.0000      AWU WELLS            =           2.4535
    DIVERSION SEGMENTS   =           0.0000      DIVERSION SEGMENTS   =           0.0000
    GW IRRIGATION        =           0.0000      GW IRRIGATION        =           0.0000
    SW IRRIGATION        =           0.0000      SW IRRIGATION        =           0.0000
    EFFICIENCY FACTOR GW =           0.0000      EFFICIENCY FACTOR GW =           0.0000
    EFFICIENCY FACTOR SW =           0.0000      EFFICIENCY FACTOR SW =           0.0000

                TOTAL IN =     9599664.0000                  TOTAL IN =           2.4535

          OUT:                                     OUT:
          ----                                     ----
    AWU WELLS            =           0.0000      AWU WELLS            =           0.0000
    DIVERSION SEGMENTS   =           0.0000      DIVERSION SEGMENTS   =           0.0000
    GW IRRIGATION        =     9599664.0000      GW IRRIGATION        =           2.4535
    SW IRRIGATION        =           0.0000      SW IRRIGATION        =           0.0000
    EFFICIENCY FACTOR GW =           0.0000      EFFICIENCY FACTOR GW =           0.0000
    EFFICIENCY FACTOR SW =           0.0000      EFFICIENCY FACTOR SW =           0.0000

               TOTAL OUT =     9599664.0000                 TOTAL OUT =           2.4535

                IN - OUT =           0.0000                  IN - OUT =           0.0000

     PERCENT DISCREPANCY =           0.00         PERCENT DISCREPANCY =           0.00



1
  VOLUMETRIC BUDGET FOR ENTIRE MODEL AT END OF TIME STEP    9, STRESS PERIOD   5
  ------------------------------------------------------------------------------

     CUMULATIVE VOLUMES      L**3       RATES FOR THIS TIME STEP      L**3/T
     ------------------                 ------------------------

           IN:                                      IN:
           ---                                      ---
             STORAGE     =    14423212.0000               STORAGE     =           2.3745
       CONSTANT HEAD     =           0.0000         CONSTANT HEAD     =           0.0000
     HEAD DEP BOUNDS     =     2503391.7500       HEAD DEP BOUNDS     =           0.2859
      STREAM LEAKAGE     =   102461328.0000        STREAM LEAKAGE     =          13.6252
        UZF RECHARGE     =       73223.9531          UZF RECHARGE     =           0.0000
               GW ET     =           0.0000                 GW ET     =           0.0000
     SURFACE LEAKAGE     =           0.0000       SURFACE LEAKAGE     =           0.0000
    AWU WELLS            =           0.0000      AWU WELLS            =           0.0000

                TOTAL IN =   119461160.0000                  TOTAL IN =          16.2856

          OUT:                                     OUT:
          ----                                     ----
             STORAGE     =    16809312.0000               STORAGE     =           4.3479
       CONSTANT HEAD     =           0.0000         CONSTANT HEAD     =           0.0000
     HEAD DEP BOUNDS     =     2529146.5000       HEAD DEP BOUNDS     =           0.2935
      STREAM LEAKAGE     =    89949440.0000        STREAM LEAKAGE     =           8.6632
        UZF RECHARGE     =           0.0000          UZF RECHARGE     =           0.0000
               GW ET     =      580522.2500                 GW ET     =           0.5288
     SURFACE LEAKAGE     =           0.0000       SURFACE LEAKAGE     =           0.0000
    AWU WELLS            =     9599664.0000      AWU WELLS            =           2.4535

               TOTAL OUT =   119468080.0000                 TOTAL OUT =          16.2870

                IN - OUT =       -6920.0000                  IN - OUT =      -1.4210E-03

     PERCENT DISCREPANCY =          -0.01         PERCENT DISCREPANCY =          -0.01






         TIME SUMMARY AT END OF TIME STEP    9 IN STRESS PERIOD    5
                    SECONDS     MINUTES      HOURS       DAYS        YEARS
                    -----------------------------------------------------------
   TIME STEP LENGTH  87600.      1460.0      24.333      1.0139     2.77588E-03
 STRESS PERIOD TIME 7.88400E+05  13140.      219.00      9.1250     2.49829E-02
         TOTAL TIME 8.75880E+06 1.45980E+05  2433.0      101.38     0.27755    
1
 
 SOLVING FOR HEAD 
                                                   Max.-Head-Change                         Max.-Flux-Residual
  Residual-Control   Outer-Iter.   Inner-Iter.     Column Row Layer    Maximum-Head-Change  Column Row Layer    Maximum-Flux-Residual          L2-NORM 
          0                 1           2             2   13     1       0.8065420470E-02       2   13    1         0.4573159494E+00      0.1187623829E+01
          0                 2           2             2   13     1      -0.7634915053E-03       2   13    1        -0.4368370160E-01      0.1170605414E+00
          0                 3           1             2    2     1       0.6654310451E-04       2   13    1         0.3732065870E-02      0.1037399422E-01

    ------------------------------------------------
       NWT REQUIRED            3 OUTER ITERATIONS 
       AND A TOTAL OF          5 INNER ITERATIONS.
    ------------------------------------------------

 OUTPUT CONTROL FOR STRESS PERIOD    5   TIME STEP   10
    PRINT BUDGET
    SAVE BUDGET
 UBDSV1 SAVING "         STORAGE" ON UNIT 102 AT TIME STEP    10, STRESS PERIOD   5
 UBDSV2 SAVING "   CONSTANT HEAD" ON UNIT 102 AT TIME STEP    10, STRESS PERIOD   5
 UBDSV1 SAVING "FLOW RIGHT FACE " ON UNIT 102 AT TIME STEP    10, STRESS PERIOD   5
 UBDSV1 SAVING "FLOW FRONT FACE " ON UNIT 102 AT TIME STEP    10, STRESS PERIOD   5

  HEAD DEP BOUNDS   PERIOD    5   STEP    10
 BOUNDARY      1   LAYER   1   ROW    13   COL     1   RATE   -0.293721    
 BOUNDARY      2   LAYER   1   ROW    14   COL     9   RATE    0.285874    



 STREAM LISTING     PERIOD      5   STEP       10

 LAYER ROW COL. STREAM  RCH.  FLOW INTO     FLOW TO   FLOW OUT OF   OVRLND.     DIRECT     STREAM       STREAM     STREAM     STREAM   STREAMBED  STREAMBED
                SEG.NO.  NO.  STRM. RCH.    AQUIFER    STRM. RCH.    RUNOFF     PRECIP       ET          HEAD       DEPTH      WIDTH   CONDCTNC.   GRADIENT

   1    1    1     1     1    7.7000E+01  4.2703E-01   7.6573E+01  0.000E+00  0.000E+00  0.000E+00  1.09476E+03  1.708E+00  2.016E+01  9.070E-02  1.569E+00
   1    2    2     1     2    7.6573E+01  6.6237E-01   7.5911E+01  0.000E+00  0.000E+00  0.000E+00  1.08976E+03  1.706E+00  2.011E+01  1.408E-01  1.569E+00
   1    3    3     1     3    7.5911E+01  5.6590E-01   7.5345E+01  0.000E+00  0.000E+00  0.000E+00  1.08412E+03  1.703E+00  2.006E+01  1.203E-01  1.568E+00
   1    3    4     1     4    7.5345E+01  5.2193E-01   7.4823E+01  0.000E+00  0.000E+00  0.000E+00  1.07911E+03  1.700E+00  2.001E+01  1.110E-01  1.567E+00
   1    4    5     2     1    7.2823E+01  4.1259E-01   7.2410E+01  0.000E+00  0.000E+00  0.000E+00  1.07422E+03  2.290E+00  1.200E+01  7.800E-02  1.763E+00
   1    5    6     2     2    7.2410E+01  3.1696E-01   7.2093E+01  0.000E+00  0.000E+00  0.000E+00  1.06879E+03  2.283E+00  1.200E+01  6.000E-02  1.761E+00
   1    6    6     2     3    7.2093E+01  3.1660E-01   7.1777E+01  0.000E+00  0.000E+00  0.000E+00  1.06407E+03  2.277E+00  1.200E+01  6.000E-02  1.759E+00
   1    7    6     2     4    7.1777E+01  3.1624E-01   7.1460E+01  0.000E+00  0.000E+00  0.000E+00  1.05935E+03  2.271E+00  1.200E+01  6.000E-02  1.757E+00
   1    8    6     2     5    7.1460E+01  3.1588E-01   7.1144E+01  0.000E+00  0.000E+00  0.000E+00  1.05462E+03  2.265E+00  1.200E+01  6.000E-02  1.755E+00
   1    3    5     3     1    2.0000E+00  2.8252E-01   1.7175E+00  0.000E+00  0.000E+00  0.000E+00  1.07555E+03  1.909E+00  9.636E+00  7.227E-02  1.955E+00
   1    3    6     3     2    1.7175E+00  2.4905E-01   1.4684E+00  0.000E+00  0.000E+00  0.000E+00  1.07264E+03  1.727E+00  8.909E+00  6.682E-02  1.864E+00
   1    3    7     3     3    1.4684E+00  1.9718E-01   1.2712E+00  0.000E+00  0.000E+00  0.000E+00  1.06987E+03  1.555E+00  8.218E+00  5.547E-02  1.777E+00
   1    4    8     3     4    1.2712E+00  2.2567E-01   1.0456E+00  0.000E+00  0.000E+00  0.000E+00  1.06682E+03  1.364E+00  7.455E+00  6.709E-02  1.682E+00
   1    5    8     3     5    1.0456E+00  1.5790E-01   8.8768E-01  0.000E+00  0.000E+00  0.000E+00  1.06362E+03  1.164E+00  6.655E+00  4.991E-02  1.582E+00
   1    6    8     3     6    8.8768E-01  5.5980E-02   8.3170E-01  0.000E+00  0.000E+00  0.000E+00  1.06158E+03  1.036E+00  6.145E+00  1.844E-02  1.518E+00
   1    5   10     4     1    1.0000E+01  9.0919E-02   9.9091E+00  0.000E+00  0.000E+00  0.000E+00  1.07836E+03  6.368E-01  1.000E+01  2.500E-02  1.212E+00
   1    5    9     4     2    9.9091E+00  1.8158E-01   9.7275E+00  0.000E+00  0.000E+00  0.000E+00  1.07154E+03  6.315E-01  1.000E+01  5.000E-02  1.211E+00
   1    6    8     4     3    9.7275E+00  1.2689E-01   9.6006E+00  0.000E+00  0.000E+00  0.000E+00  1.06381E+03  6.256E-01  1.000E+01  3.500E-02  1.209E+00
   1    6    8     5     1    1.0432E+01  2.2686E-01   1.0205E+01  0.000E+00  0.000E+00  0.000E+00  1.05868E+03  6.790E-01  1.542E+01  6.166E-02  1.226E+00
   1    7    7     5     2    1.0205E+01  2.7894E-01   9.9265E+00  0.000E+00  0.000E+00  0.000E+00  1.05417E+03  6.732E-01  1.519E+01  7.594E-02  1.224E+00
   1    8    7     5     3    9.9265E+00  1.9221E-01   9.7343E+00  0.000E+00  0.000E+00  0.000E+00  1.04992E+03  6.676E-01  1.497E+01  5.241E-02  1.223E+00
   1    8    6     5     4    9.7343E+00  1.3577E-01   9.5985E+00  0.000E+00  0.000E+00  0.000E+00  1.04691E+03  6.637E-01  1.482E+01  3.706E-02  1.221E+00
   1    9    6     6     1    8.0743E+01  3.2786E-01   8.0415E+01  0.000E+00  0.000E+00  0.000E+00  1.04519E+03  2.464E+00  1.200E+01  6.000E-02  1.821E+00
   1   10    7     6     2    8.0415E+01  3.2750E-01   8.0088E+01  0.000E+00  0.000E+00  0.000E+00  1.04064E+03  2.458E+00  1.200E+01  6.000E-02  1.819E+00
   1   11    7     6     3    8.0088E+01  3.2714E-01   7.9761E+01  0.000E+00  0.000E+00  0.000E+00  1.03609E+03  2.452E+00  1.200E+01  6.000E-02  1.817E+00
   1   12    7     6     4    7.9761E+01  3.2678E-01   7.9434E+01  0.000E+00  0.000E+00  0.000E+00  1.03154E+03  2.446E+00  1.200E+01  6.000E-02  1.815E+00
   1   13    7     6     5    7.9434E+01  2.9835E-02   7.9404E+01  0.000E+00  0.000E+00  0.000E+00  1.02835E+03  2.443E+00  1.200E+01  2.400E-02  4.144E-01
   1   14    9     7     1    1.5000E+02  1.3375E+00   1.4866E+02  0.000E+00  0.000E+00  0.000E+00  1.03987E+03  2.288E+00  5.529E+01  5.593E-01  7.971E-01
   1   13    8     7     2    1.4866E+02  1.8332E+00   1.4683E+02  0.000E+00  0.000E+00  0.000E+00  1.03478E+03  2.279E+00  5.526E+01  6.148E-01  9.940E-01
   1   13    7     7     3    1.4683E+02  1.4413E+00   1.4539E+02  0.000E+00  0.000E+00  0.000E+00  1.02969E+03  2.271E+00  5.522E+01  5.585E-01  8.603E-01
   1   13    6     8     1    2.2479E+02  1.1231E+00   2.2367E+02  0.000E+00  0.000E+00  0.000E+00  1.02515E+03  3.275E+00  4.749E+01  4.839E-01  7.736E-01
   1   13    5     8     2    2.2367E+02  2.9092E-01   2.2338E+02  0.000E+00  0.000E+00  0.000E+00  1.01890E+03  3.271E+00  4.743E+01  4.834E-01  2.006E-01
   1   13    4     8     3    2.2338E+02 -1.9449E+00   2.2532E+02  0.000E+00  0.000E+00  0.000E+00  1.01265E+03  3.276E+00  4.750E+01  4.840E+00 -1.339E-01
   1   13    3     8     4    2.2532E+02 -3.1802E+00   2.2850E+02  0.000E+00  0.000E+00  0.000E+00  1.00641E+03  3.290E+00  4.770E+01  4.861E+00 -2.181E-01
   1   13    2     8     5    2.2850E+02 -2.0583E+00   2.3056E+02  0.000E+00  0.000E+00  0.000E+00  1.00018E+03  3.304E+00  4.791E+01  4.882E+00 -1.405E-01
   1   13    1     8     6    2.3056E+02 -1.5884E+00   2.3215E+02  0.000E+00  0.000E+00  0.000E+00  9.95189E+02  3.314E+00  4.805E+01  2.938E+00 -1.802E-01
   1    6    8     9     1    0.0000E+00  0.0000E+00   0.0000E+00  0.000E+00  0.000E+00  0.000E+00  1.07850E+03  0.000E+00  4.000E+00  0.000E+00  1.000E+00



 UBDSV3 SAVING "           GW ET" ON UNIT  61 AT TIME STEP    10, STRESS PERIOD   5
 UBDSV3 SAVING "    UZF RECHARGE" ON UNIT  61 AT TIME STEP    10, STRESS PERIOD   5
 UBDSV3 SAVING " SURFACE LEAKAGE" ON UNIT  61 AT TIME STEP    10, STRESS PERIOD   5
 UBDSV3 SAVING "       HORT+DUNN" ON UNIT  61 AT TIME STEP    10, STRESS PERIOD   5
 UBDSV3 SAVING "  STORAGE CHANGE" ON UNIT  61 AT TIME STEP    10, STRESS PERIOD   5


UNSATURATED ZONE PACKAGE VOLUMETRIC BUDGET FOR  TIME STEP    10 STRESS PERIOD    5
  ------------------------------------------------------------------------------



     CUMULATIVE VOLUMES      L**3       RATES FOR THIS TIME STEP      L**3/T
     ------------------                 ------------------------

           IN:                                      IN:
           ---                                      ---
        INFILTRATION =     9880108.7578          INFILTRATION =           2.3655

          OUT:                                     OUT:
          ----                                     ----
              UZF ET =      127747.5315                UZF ET =           0.1805
        UZF RECHARGE =       73224.0000          UZF RECHARGE =       0.0000E+00

            IN - OUT =     9679137.2263              IN - OUT =           2.1850

          STORAGE:                                 STORAGE:
          --------                                 --------
      STORAGE CHANGE =     9678975.7426        STORAGE CHANGE =           2.1847

 PERCENT DISCREPANCY IS DIFFERENCE BETWEEN IN-OUT MINUS CHANGE IN STORAGE
 DIVIDED BY THE AVERAGE OF IN AND OUT TIMES 100

 PERCENT DISCREPANCY =           0.00     PERCENT DISCREPANCY =           0.01






 

 AWU WELLS                PERIOD    5   STEP  10
 AWU WELL      1   LAYER   1   ROW     6   COL     4   RATE   -0.394254    
 AWU WELL      2   LAYER   1   ROW     6   COL     5   RATE   -0.394254    
 AWU WELL      3   LAYER   1   ROW     7   COL     4   RATE   -0.394254    
 AWU WELL      4   LAYER   1   ROW     7   COL     5   RATE   -0.394254    
 AWU WELL      5   LAYER   1   ROW     8   COL     4   RATE   -0.394254    
 AWU WELL      6   LAYER   1   ROW     8   COL     5   RATE   -0.394254    
 
 

 GW IRRIGATION            PERIOD    5   STEP  10
 AWU WELL      1   ROW     6   COL     4   RATE    0.394254    
 AWU WELL      2   ROW     6   COL     5   RATE    0.394254    
 AWU WELL      3   ROW     7   COL     4   RATE    0.394254    
 AWU WELL      4   ROW     7   COL     5   RATE    0.394254    
 AWU WELL      5   ROW     8   COL     4   RATE    0.394254    
 AWU WELL      6   ROW     8   COL     5   RATE    0.394254    
 
1
  VOLUMETRIC BUDGET FOR ENTIRE MODEL AT END OF TIME STEP   10, STRESS PERIOD   5
  ------------------------------------------------------------------------------

     CUMULATIVE VOLUMES      L**3       RATES FOR THIS TIME STEP      L**3/T
     ------------------                 ------------------------

           IN:                                      IN:
           ---                                      ---
    AWU WELLS            =     9806884.0000      AWU WELLS            =           2.3655
    DIVERSION SEGMENTS   =           0.0000      DIVERSION SEGMENTS   =           0.0000
    GW IRRIGATION        =           0.0000      GW IRRIGATION        =           0.0000
    SW IRRIGATION        =           0.0000      SW IRRIGATION        =           0.0000
    EFFICIENCY FACTOR GW =           0.0000      EFFICIENCY FACTOR GW =           0.0000
    EFFICIENCY FACTOR SW =           0.0000      EFFICIENCY FACTOR SW =           0.0000

                TOTAL IN =     9806884.0000                  TOTAL IN =           2.3655

          OUT:                                     OUT:
          ----                                     ----
    AWU WELLS            =           0.0000      AWU WELLS            =           0.0000
    DIVERSION SEGMENTS   =           0.0000      DIVERSION SEGMENTS   =           0.0000
    GW IRRIGATION        =     9806884.0000      GW IRRIGATION        =           2.3655
    SW IRRIGATION        =           0.0000      SW IRRIGATION        =           0.0000
    EFFICIENCY FACTOR GW =           0.0000      EFFICIENCY FACTOR GW =           0.0000
    EFFICIENCY FACTOR SW =           0.0000      EFFICIENCY FACTOR SW =           0.0000

               TOTAL OUT =     9806884.0000                 TOTAL OUT =           2.3655

                IN - OUT =           0.0000                  IN - OUT =           0.0000

     PERCENT DISCREPANCY =           0.00         PERCENT DISCREPANCY =           0.00



1
  VOLUMETRIC BUDGET FOR ENTIRE MODEL AT END OF TIME STEP   10, STRESS PERIOD   5
  ------------------------------------------------------------------------------

     CUMULATIVE VOLUMES      L**3       RATES FOR THIS TIME STEP      L**3/T
     ------------------                 ------------------------

           IN:                                      IN:
           ---                                      ---
             STORAGE     =    14621974.0000               STORAGE     =           2.2690
       CONSTANT HEAD     =           0.0000         CONSTANT HEAD     =           0.0000
     HEAD DEP BOUNDS     =     2528434.2500       HEAD DEP BOUNDS     =           0.2859
      STREAM LEAKAGE     =   103654632.0000        STREAM LEAKAGE     =          13.6222
        UZF RECHARGE     =       73223.9531          UZF RECHARGE     =           0.0000
               GW ET     =           0.0000                 GW ET     =           0.0000
     SURFACE LEAKAGE     =           0.0000       SURFACE LEAKAGE     =           0.0000
    AWU WELLS            =           0.0000      AWU WELLS            =           0.0000

                TOTAL IN =   120878264.0000                  TOTAL IN =          16.1770

          OUT:                                     OUT:
          ----                                     ----
             STORAGE     =    17178784.0000               STORAGE     =           4.2177
       CONSTANT HEAD     =           0.0000         CONSTANT HEAD     =           0.0000
     HEAD DEP BOUNDS     =     2554876.5000       HEAD DEP BOUNDS     =           0.2937
      STREAM LEAKAGE     =    90717848.0000        STREAM LEAKAGE     =           8.7718
        UZF RECHARGE     =           0.0000          UZF RECHARGE     =           0.0000
               GW ET     =      626916.9375                 GW ET     =           0.5296
     SURFACE LEAKAGE     =           0.0000       SURFACE LEAKAGE     =           0.0000
    AWU WELLS            =     9806884.0000      AWU WELLS            =           2.3655

               TOTAL OUT =   120885312.0000                 TOTAL OUT =          16.1784

                IN - OUT =       -7048.0000                  IN - OUT =      -1.4019E-03

     PERCENT DISCREPANCY =          -0.01         PERCENT DISCREPANCY =          -0.01






         TIME SUMMARY AT END OF TIME STEP   10 IN STRESS PERIOD    5
                    SECONDS     MINUTES      HOURS       DAYS        YEARS
                    -----------------------------------------------------------
   TIME STEP LENGTH  87600.      1460.0      24.333      1.0139     2.77588E-03
 STRESS PERIOD TIME 8.76000E+05  14600.      243.33      10.139     2.77588E-02
         TOTAL TIME 8.84640E+06 1.47440E+05  2457.3      102.39     0.28033    
1
 
 SOLVING FOR HEAD 
                                                   Max.-Head-Change                         Max.-Flux-Residual
  Residual-Control   Outer-Iter.   Inner-Iter.     Column Row Layer    Maximum-Head-Change  Column Row Layer    Maximum-Flux-Residual          L2-NORM 
          0                 1           2             2    2     1       0.7485128176E-02       2   13    1         0.4205911463E+00      0.1131669229E+01
          0                 2           2             2    2     1      -0.7417102732E-03       2   13    1        -0.4018666881E-01      0.1116543466E+00
          0                 3           1             2    2     1       0.6614761526E-04       2    2    1         0.3518772495E-02      0.9906631716E-02

    ------------------------------------------------
       NWT REQUIRED            3 OUTER ITERATIONS 
       AND A TOTAL OF          5 INNER ITERATIONS.
    ------------------------------------------------

 NO OUTPUT CONTROL FOR STRESS PERIOD    5   TIME STEP   11
 
 SOLVING FOR HEAD 
                                                   Max.-Head-Change                         Max.-Flux-Residual
  Residual-Control   Outer-Iter.   Inner-Iter.     Column Row Layer    Maximum-Head-Change  Column Row Layer    Maximum-Flux-Residual          L2-NORM 
          0                 1           2             2    2     1       0.7440991617E-02       2    2    1         0.3886513183E+00      0.1082034806E+01
          0                 2           2             2    2     1      -0.7373367055E-03       2    2    1        -0.3886526623E-01      0.1068622424E+00
          0                 3           1             2    2     1       0.6575756918E-04       2    2    1         0.3497873072E-02      0.9491787296E-02

    ------------------------------------------------
       NWT REQUIRED            3 OUTER ITERATIONS 
       AND A TOTAL OF          5 INNER ITERATIONS.
    ------------------------------------------------

 NO OUTPUT CONTROL FOR STRESS PERIOD    5   TIME STEP   12
 
 SOLVING FOR HEAD 
                                                   Max.-Head-Change                         Max.-Flux-Residual
  Residual-Control   Outer-Iter.   Inner-Iter.     Column Row Layer    Maximum-Head-Change  Column Row Layer    Maximum-Flux-Residual          L2-NORM 
          0                 1           2             2    2     1       0.7397374710E-02       2    2    1         0.3863565807E+00      0.8665301835E+00
          0                 2           2             2    2     1      -0.7330146315E-03       2    2    1        -0.3863579021E-01      0.8637302826E-01
          0                 3           1             2    2     1       0.6537211631E-04       2    2    1         0.3477220253E-02      0.7747556771E-02

    ------------------------------------------------
       NWT REQUIRED            3 OUTER ITERATIONS 
       AND A TOTAL OF          5 INNER ITERATIONS.
    ------------------------------------------------

 NO OUTPUT CONTROL FOR STRESS PERIOD    5   TIME STEP   13
 
 SOLVING FOR HEAD 
                                                   Max.-Head-Change                         Max.-Flux-Residual
  Residual-Control   Outer-Iter.   Inner-Iter.     Column Row Layer    Maximum-Head-Change  Column Row Layer    Maximum-Flux-Residual          L2-NORM 
          0                 1           2             2    2     1       0.7354355713E-02       2    2    1         0.3840933687E+00      0.8182067013E+00
          0                 2           2             2    2     1      -0.7287518060E-03       2    2    1        -0.3840946680E-01      0.8172913233E-01
          0                 3           1             2    2     1       0.6499194723E-04       2    2    1         0.3456851170E-02      0.7347171944E-02

    ------------------------------------------------
       NWT REQUIRED            3 OUTER ITERATIONS 
       AND A TOTAL OF          5 INNER ITERATIONS.
    ------------------------------------------------

 NO OUTPUT CONTROL FOR STRESS PERIOD    5   TIME STEP   14
 
 SOLVING FOR HEAD 
                                                   Max.-Head-Change                         Max.-Flux-Residual
  Residual-Control   Outer-Iter.   Inner-Iter.     Column Row Layer    Maximum-Head-Change  Column Row Layer    Maximum-Flux-Residual          L2-NORM 
          0                 1           2             2    2     1       0.7311925457E-02       2    2    1         0.3818611813E+00      0.8002637826E+00
          0                 2           2             2    2     1      -0.7245473199E-03       2    2    1        -0.3818624589E-01      0.7995110723E-01
          0                 3           1             2    2     1       0.6461698064E-04       2    2    1         0.3436761319E-02      0.7188751490E-02

    ------------------------------------------------
       NWT REQUIRED            3 OUTER ITERATIONS 
       AND A TOTAL OF          5 INNER ITERATIONS.
    ------------------------------------------------

 NO OUTPUT CONTROL FOR STRESS PERIOD    5   TIME STEP   15
 
 SOLVING FOR HEAD 
                                                   Max.-Head-Change                         Max.-Flux-Residual
  Residual-Control   Outer-Iter.   Inner-Iter.     Column Row Layer    Maximum-Head-Change  Column Row Layer    Maximum-Flux-Residual          L2-NORM 
          0                 1           2             2    2     1       0.7270074617E-02       2    2    1         0.3796595429E+00      0.7841627432E+00
          0                 2           2             2    2     1      -0.7204002498E-03       2    2    1        -0.3796607995E-01      0.7835446563E-01
          0                 3           1             2    2     1       0.6424713404E-04       2    2    1         0.3416946392E-02      0.7046087275E-02

    ------------------------------------------------
       NWT REQUIRED            3 OUTER ITERATIONS 
       AND A TOTAL OF          5 INNER ITERATIONS.
    ------------------------------------------------

 NO OUTPUT CONTROL FOR STRESS PERIOD    5   TIME STEP   16
 
 SOLVING FOR HEAD 
                                                   Max.-Head-Change                         Max.-Flux-Residual
  Residual-Control   Outer-Iter.   Inner-Iter.     Column Row Layer    Maximum-Head-Change  Column Row Layer    Maximum-Flux-Residual          L2-NORM 
          0                 1           2             2    2     1       0.7228707083E-02       2    2    1         0.3774834065E+00      0.7696868823E+00
          0                 2           2             2    2     1      -0.7163010710E-03       2    2    1        -0.3774846424E-01      0.7691834081E-01
          0                 3           1             2    2     1       0.6388155893E-04       2    2    1         0.3397360982E-02      0.6917872058E-02

    ------------------------------------------------
       NWT REQUIRED            3 OUTER ITERATIONS 
       AND A TOTAL OF          5 INNER ITERATIONS.
    ------------------------------------------------

 NO OUTPUT CONTROL FOR STRESS PERIOD    5   TIME STEP   17
 
 SOLVING FOR HEAD 
                                                   Max.-Head-Change                         Max.-Flux-Residual
  Residual-Control   Outer-Iter.   Inner-Iter.     Column Row Layer    Maximum-Head-Change  Column Row Layer    Maximum-Flux-Residual          L2-NORM 
          0                 1           2             2    2     1       0.7187901777E-02       2    2    1         0.3753369108E+00      0.7565713199E+00
          0                 2           2             2    2     1      -0.7122576051E-03       2    2    1        -0.3753381266E-01      0.7561599057E-01
          0                 3           1             2    2     1       0.6352095276E-04       2    2    1         0.3378042368E-02      0.6801371048E-02

    ------------------------------------------------
       NWT REQUIRED            3 OUTER ITERATIONS 
       AND A TOTAL OF          5 INNER ITERATIONS.
    ------------------------------------------------

 NO OUTPUT CONTROL FOR STRESS PERIOD    5   TIME STEP   18
 
 SOLVING FOR HEAD 
                                                   Max.-Head-Change                         Max.-Flux-Residual
  Residual-Control   Outer-Iter.   Inner-Iter.     Column Row Layer    Maximum-Head-Change  Column Row Layer    Maximum-Flux-Residual          L2-NORM 
          0                 1           2             2    2     1       0.7147562500E-02       2    2    1         0.3732150249E+00      0.7446840159E+00
          0                 2           2             2    2     1      -0.7082603189E-03       2    2    1        -0.3732162211E-01      0.7443529473E-01
          0                 3           1             2    2     1       0.6316446433E-04       2    2    1         0.3358945222E-02      0.6696109871E-02

    ------------------------------------------------
       NWT REQUIRED            3 OUTER ITERATIONS 
       AND A TOTAL OF          5 INNER ITERATIONS.
    ------------------------------------------------

 NO OUTPUT CONTROL FOR STRESS PERIOD    5   TIME STEP   19
 
 SOLVING FOR HEAD 
                                                   Max.-Head-Change                         Max.-Flux-Residual
  Residual-Control   Outer-Iter.   Inner-Iter.     Column Row Layer    Maximum-Head-Change  Column Row Layer    Maximum-Flux-Residual          L2-NORM 
          0                 1           2             2    2     1       0.7107856404E-02       2    2    1         0.3711264472E+00      0.7876295768E+00
          0                 2           2             2    2     1      -0.7043257760E-03       2    2    1        -0.3711276239E-01      0.7844074624E-01
          0                 3           1             2    2     1       0.6281357233E-04       2    2    1         0.3340147871E-02      0.7029876113E-02

    ------------------------------------------------
       NWT REQUIRED            3 OUTER ITERATIONS 
       AND A TOTAL OF          5 INNER ITERATIONS.
    ------------------------------------------------

 NO OUTPUT CONTROL FOR STRESS PERIOD    5   TIME STEP   20
 
 SOLVING FOR HEAD 
                                                   Max.-Head-Change                         Max.-Flux-Residual
  Residual-Control   Outer-Iter.   Inner-Iter.     Column Row Layer    Maximum-Head-Change  Column Row Layer    Maximum-Flux-Residual          L2-NORM 
          0                 1           2             2    2     1       0.7068599329E-02       2    2    1         0.3690615972E+00      0.9919082772E+00
          0                 2           2             2    2     1      -0.7004357281E-03       2    2    1        -0.3690627552E-01      0.9778724480E-01
          0                 3           1             2    2     1       0.6246664827E-04       2    2    1         0.3321564090E-02      0.8669129262E-02

    ------------------------------------------------
       NWT REQUIRED            3 OUTER ITERATIONS 
       AND A TOTAL OF          5 INNER ITERATIONS.
    ------------------------------------------------

 NO OUTPUT CONTROL FOR STRESS PERIOD    5   TIME STEP   21
 
 SOLVING FOR HEAD 
                                                   Max.-Head-Change                         Max.-Flux-Residual
  Residual-Control   Outer-Iter.   Inner-Iter.     Column Row Layer    Maximum-Head-Change  Column Row Layer    Maximum-Flux-Residual          L2-NORM 
          0                 1           2             2    2     1       0.7029784206E-02       2    2    1         0.3670200458E+00      0.9520240741E+00
          0                 2           2             2    2     1      -0.6965894739E-03       2    2    1        -0.3670211854E-01      0.9396444919E-01
          0                 3           1             2    2     1       0.6212362976E-04       2    2    1         0.3303189982E-02      0.8340884990E-02

    ------------------------------------------------
       NWT REQUIRED            3 OUTER ITERATIONS 
       AND A TOTAL OF          5 INNER ITERATIONS.
    ------------------------------------------------

 NO OUTPUT CONTROL FOR STRESS PERIOD    5   TIME STEP   22
 
 SOLVING FOR HEAD 
                                                   Max.-Head-Change                         Max.-Flux-Residual
  Residual-Control   Outer-Iter.   Inner-Iter.     Column Row Layer    Maximum-Head-Change  Column Row Layer    Maximum-Flux-Residual          L2-NORM 
          0                 1           2             2    2     1       0.6991577463E-02       2    2    1         0.3650105545E+00      0.9167176492E+00
          0                 2           2             2    2     1      -0.6928035050E-03       2    2    1        -0.3650116760E-01      0.9058005430E-01
          0                 3           1             2    2     1       0.6178598763E-04       2    2    1         0.3285104398E-02      0.8049168940E-02

    ------------------------------------------------
       NWT REQUIRED            3 OUTER ITERATIONS 
       AND A TOTAL OF          5 INNER ITERATIONS.
    ------------------------------------------------

 NO OUTPUT CONTROL FOR STRESS PERIOD    5   TIME STEP   23
 
 SOLVING FOR HEAD 
                                                   Max.-Head-Change                         Max.-Flux-Residual
  Residual-Control   Outer-Iter.   Inner-Iter.     Column Row Layer    Maximum-Head-Change  Column Row Layer    Maximum-Flux-Residual          L2-NORM 
          0                 1           2             2    2     1       0.6953795676E-02       2    2    1         0.3630235028E+00      0.8854571499E+00
          0                 2           2             2    2     1      -0.6890596461E-03       2    2    1        -0.3630246069E-01      0.8758213616E-01
          0                 3           1             2    2     1       0.6145210027E-04       2    2    1         0.3267220777E-02      0.7791664784E-02

    ------------------------------------------------
       NWT REQUIRED            3 OUTER ITERATIONS 
       AND A TOTAL OF          5 INNER ITERATIONS.
    ------------------------------------------------

 NO OUTPUT CONTROL FOR STRESS PERIOD    5   TIME STEP   24
 
 SOLVING FOR HEAD 
                                                   Max.-Head-Change                         Max.-Flux-Residual
  Residual-Control   Outer-Iter.   Inner-Iter.     Column Row Layer    Maximum-Head-Change  Column Row Layer    Maximum-Flux-Residual          L2-NORM 
          0                 1           2             2    2     1       0.6916519464E-02       2    2    1         0.3610630655E+00      0.8577662704E+00
          0                 2           2             2    2     1      -0.6853658861E-03       2    2    1        -0.3610641522E-01      0.8493355456E-01
          0                 3           1             2    2     1       0.6112268209E-04       2    2    1         0.3249576720E-02      0.7564814516E-02

    ------------------------------------------------
       NWT REQUIRED            3 OUTER ITERATIONS 
       AND A TOTAL OF          5 INNER ITERATIONS.
    ------------------------------------------------

 NO OUTPUT CONTROL FOR STRESS PERIOD    5   TIME STEP   25
 
 SOLVING FOR HEAD 
                                                   Max.-Head-Change                         Max.-Flux-Residual
  Residual-Control   Outer-Iter.   Inner-Iter.     Column Row Layer    Maximum-Head-Change  Column Row Layer    Maximum-Flux-Residual          L2-NORM 
          0                 1           2             2    2     1       0.6879653582E-02       2    2    1         0.3591242969E+00      0.8331954040E+00
          0                 2           2             2    2     1      -0.6817127860E-03       2    2    1        -0.3591253669E-01      0.8257857373E-01
          0                 3           1             2    2     1       0.6079688876E-04       2    2    1         0.3232127651E-02      0.7362498160E-02

    ------------------------------------------------
       NWT REQUIRED            3 OUTER ITERATIONS 
       AND A TOTAL OF          5 INNER ITERATIONS.
    ------------------------------------------------

 NO OUTPUT CONTROL FOR STRESS PERIOD    5   TIME STEP   26
 
 SOLVING FOR HEAD 
                                                   Max.-Head-Change                         Max.-Flux-Residual
  Residual-Control   Outer-Iter.   Inner-Iter.     Column Row Layer    Maximum-Head-Change  Column Row Layer    Maximum-Flux-Residual          L2-NORM 
          0                 1           2             2    2     1       0.6843278184E-02       2    2    1         0.3572113843E+00      0.8113852680E+00
          0                 2           2             2    2     1      -0.6781082895E-03       2    2    1        -0.3572124379E-01      0.8049037457E-01
          0                 3           1             2    2     1       0.6047543126E-04       2    2    1         0.3214911305E-02      0.7183549193E-02

    ------------------------------------------------
       NWT REQUIRED            3 OUTER ITERATIONS 
       AND A TOTAL OF          5 INNER ITERATIONS.
    ------------------------------------------------

 NO OUTPUT CONTROL FOR STRESS PERIOD    5   TIME STEP   27
 
 SOLVING FOR HEAD 
                                                   Max.-Head-Change                         Max.-Flux-Residual
  Residual-Control   Outer-Iter.   Inner-Iter.     Column Row Layer    Maximum-Head-Change  Column Row Layer    Maximum-Flux-Residual          L2-NORM 
          0                 1           2             2    2     1       0.6807385881E-02       2    2    1         0.3553239222E+00      0.7919711040E+00
          0                 2           2             2    2     1      -0.6745516635E-03       2    2    1        -0.3553249595E-01      0.7862803185E-01
          0                 3           1             2    2     1       0.6015824229E-04       2    2    1         0.3197924017E-02      0.7023013042E-02

    ------------------------------------------------
       NWT REQUIRED            3 OUTER ITERATIONS 
       AND A TOTAL OF          5 INNER ITERATIONS.
    ------------------------------------------------

 NO OUTPUT CONTROL FOR STRESS PERIOD    5   TIME STEP   28
 
 SOLVING FOR HEAD 
                                                   Max.-Head-Change                         Max.-Flux-Residual
  Residual-Control   Outer-Iter.   Inner-Iter.     Column Row Layer    Maximum-Head-Change  Column Row Layer    Maximum-Flux-Residual          L2-NORM 
          0                 1           2             2    2     1       0.6224510518E-02       2    2    1         0.3248193685E+00      0.6489913031E+00
          0                 2           2             2    2     1      -0.6167937056E-03       2    2    1        -0.3248202062E-01      0.6489361802E-01
          0                 3           1             2    2     1       0.5500724181E-04       2    2    1         0.2923381407E-02      0.5839831324E-02

    ------------------------------------------------
       NWT REQUIRED            3 OUTER ITERATIONS 
       AND A TOTAL OF          5 INNER ITERATIONS.
    ------------------------------------------------

 NO OUTPUT CONTROL FOR STRESS PERIOD    5   TIME STEP   29
 
 SOLVING FOR HEAD 
                                                   Max.-Head-Change                         Max.-Flux-Residual
  Residual-Control   Outer-Iter.   Inner-Iter.     Column Row Layer    Maximum-Head-Change  Column Row Layer    Maximum-Flux-Residual          L2-NORM 
          0                 1           2             4   13     1      -0.2221427073E-01       4   13    1        -0.1274095596E+01      0.2204929574E+01
          0                 2           2             4   13     1       0.2215843222E-02       4   13    1         0.1282689924E+00      0.2376024372E+00
          0                 3           2             4   13     1      -0.1963451942E-03       4   13    1        -0.1147160487E-01      0.2096687135E-01
          0                 4           1             4   13     1       0.1547138704E-04       4   13    1         0.9123498658E-03      0.1643287659E-02

    ------------------------------------------------
       NWT REQUIRED            4 OUTER ITERATIONS 
       AND A TOTAL OF          7 INNER ITERATIONS.
    ------------------------------------------------

 NO OUTPUT CONTROL FOR STRESS PERIOD    5   TIME STEP   30



 STREAM LISTING     PERIOD      5   STEP       30

 LAYER ROW COL. STREAM  RCH.  FLOW INTO     FLOW TO   FLOW OUT OF   OVRLND.     DIRECT     STREAM       STREAM     STREAM     STREAM   STREAMBED  STREAMBED
                SEG.NO.  NO.  STRM. RCH.    AQUIFER    STRM. RCH.    RUNOFF     PRECIP       ET          HEAD       DEPTH      WIDTH   CONDCTNC.   GRADIENT

   1    1    1     1     1    2.8000E+01  2.5860E-01   2.7741E+01  0.000E+00  0.000E+00  0.000E+00  1.09427E+03  1.221E+00  1.361E+01  6.126E-02  1.407E+00
   1    2    2     1     2    2.7741E+01  4.0002E-01   2.7341E+01  0.000E+00  0.000E+00  0.000E+00  1.08928E+03  1.217E+00  1.355E+01  9.487E-02  1.406E+00
   1    3    3     1     3    2.7341E+01  3.4070E-01   2.7001E+01  0.000E+00  0.000E+00  0.000E+00  1.08363E+03  1.212E+00  1.348E+01  8.090E-02  1.404E+00
   1    3    4     1     4    2.7001E+01  3.1335E-01   2.6687E+01  0.000E+00  0.000E+00  0.000E+00  1.07861E+03  1.207E+00  1.342E+01  7.448E-02  1.402E+00
   1    4    5     2     1    2.4687E+01  3.2711E-01   2.4360E+01  0.000E+00  0.000E+00  0.000E+00  1.07313E+03  1.194E+00  1.200E+01  7.800E-02  1.398E+00
   1    5    6     2     2    2.4360E+01  2.5111E-01   2.4109E+01  0.000E+00  0.000E+00  0.000E+00  1.06769E+03  1.185E+00  1.200E+01  6.000E-02  1.395E+00
   1    6    6     2     3    2.4109E+01  2.5067E-01   2.3858E+01  0.000E+00  0.000E+00  0.000E+00  1.06297E+03  1.178E+00  1.200E+01  6.000E-02  1.393E+00
   1    7    6     2     4    2.3858E+01  2.5023E-01   2.3608E+01  0.000E+00  0.000E+00  0.000E+00  1.05825E+03  1.170E+00  1.200E+01  6.000E-02  1.390E+00
   1    8    6     2     5    2.3608E+01  2.4978E-01   2.3358E+01  0.000E+00  0.000E+00  0.000E+00  1.05352E+03  1.163E+00  1.200E+01  6.000E-02  1.388E+00
   1    3    5     3     1    2.0000E+00  2.8252E-01   1.7175E+00  0.000E+00  0.000E+00  0.000E+00  1.07555E+03  1.909E+00  9.636E+00  7.227E-02  1.955E+00
   1    3    6     3     2    1.7175E+00  2.4905E-01   1.4684E+00  0.000E+00  0.000E+00  0.000E+00  1.07264E+03  1.727E+00  8.909E+00  6.682E-02  1.864E+00
   1    3    7     3     3    1.4684E+00  1.9718E-01   1.2712E+00  0.000E+00  0.000E+00  0.000E+00  1.06987E+03  1.555E+00  8.218E+00  5.547E-02  1.777E+00
   1    4    8     3     4    1.2712E+00  2.2567E-01   1.0456E+00  0.000E+00  0.000E+00  0.000E+00  1.06682E+03  1.364E+00  7.455E+00  6.709E-02  1.682E+00
   1    5    8     3     5    1.0456E+00  1.5790E-01   8.8768E-01  0.000E+00  0.000E+00  0.000E+00  1.06362E+03  1.164E+00  6.655E+00  4.991E-02  1.582E+00
   1    6    8     3     6    8.8768E-01  5.5980E-02   8.3170E-01  0.000E+00  0.000E+00  0.000E+00  1.06158E+03  1.036E+00  6.145E+00  1.844E-02  1.518E+00
   1    5   10     4     1    1.0000E+01  9.0919E-02   9.9091E+00  0.000E+00  0.000E+00  0.000E+00  1.07836E+03  6.368E-01  1.000E+01  2.500E-02  1.212E+00
   1    5    9     4     2    9.9091E+00  1.8158E-01   9.7275E+00  0.000E+00  0.000E+00  0.000E+00  1.07154E+03  6.315E-01  1.000E+01  5.000E-02  1.211E+00
   1    6    8     4     3    9.7275E+00  1.2689E-01   9.6006E+00  0.000E+00  0.000E+00  0.000E+00  1.06381E+03  6.256E-01  1.000E+01  3.500E-02  1.209E+00
   1    6    8     5     1    1.0432E+01  2.2686E-01   1.0205E+01  0.000E+00  0.000E+00  0.000E+00  1.05868E+03  6.790E-01  1.542E+01  6.166E-02  1.226E+00
   1    7    7     5     2    1.0205E+01  2.7894E-01   9.9265E+00  0.000E+00  0.000E+00  0.000E+00  1.05417E+03  6.732E-01  1.519E+01  7.594E-02  1.224E+00
   1    8    7     5     3    9.9265E+00  1.9221E-01   9.7343E+00  0.000E+00  0.000E+00  0.000E+00  1.04992E+03  6.676E-01  1.497E+01  5.241E-02  1.223E+00
   1    8    6     5     4    9.7343E+00  1.3577E-01   9.5985E+00  0.000E+00  0.000E+00  0.000E+00  1.04691E+03  6.637E-01  1.482E+01  3.706E-02  1.221E+00
   1    9    6     6     1    1.2957E+01  2.2913E-01   1.2728E+01  0.000E+00  0.000E+00  0.000E+00  1.04355E+03  8.188E-01  1.200E+01  6.000E-02  1.273E+00
   1   10    7     6     2    1.2728E+01  2.2860E-01   1.2499E+01  0.000E+00  0.000E+00  0.000E+00  1.03899E+03  8.100E-01  1.200E+01  6.000E-02  1.270E+00
   1   11    7     6     3    1.2499E+01  2.2807E-01   1.2271E+01  0.000E+00  0.000E+00  0.000E+00  1.03444E+03  8.011E-01  1.200E+01  6.000E-02  1.267E+00
   1   12    7     6     4    1.2271E+01  2.2754E-01   1.2044E+01  0.000E+00  0.000E+00  0.000E+00  1.02988E+03  7.923E-01  1.200E+01  6.000E-02  1.264E+00
   1   13    7     6     5    1.2044E+01 -1.0198E-01   1.2146E+01  0.000E+00  0.000E+00  0.000E+00  1.02670E+03  7.898E-01  1.200E+01  2.400E-01 -1.416E-01
   1   14    9     7     1    1.5000E+02  1.3377E+00   1.4866E+02  0.000E+00  0.000E+00  0.000E+00  1.03987E+03  2.288E+00  5.529E+01  5.593E-01  7.972E-01
   1   13    8     7     2    1.4866E+02  1.8301E+00   1.4683E+02  0.000E+00  0.000E+00  0.000E+00  1.03478E+03  2.279E+00  5.526E+01  6.148E-01  9.923E-01
   1   13    7     7     3    1.4683E+02  1.4331E+00   1.4540E+02  0.000E+00  0.000E+00  0.000E+00  1.02969E+03  2.271E+00  5.522E+01  5.585E-01  8.554E-01
   1   13    6     8     1    1.5754E+02  7.9648E-01   1.5675E+02  0.000E+00  0.000E+00  0.000E+00  1.02474E+03  2.866E+00  4.156E+01  4.235E-01  6.268E-01
   1   13    5     8     2    1.5675E+02  7.0900E-02   1.5668E+02  0.000E+00  0.000E+00  0.000E+00  1.01849E+03  2.863E+00  4.152E+01  4.231E-01  5.586E-02
   1   13    4     8     3    1.5668E+02 -3.4872E+00   1.6016E+02  0.000E+00  0.000E+00  0.000E+00  1.01225E+03  2.875E+00  4.169E+01  4.248E+00 -2.736E-01
   1   13    3     8     4    1.6016E+02 -4.5605E+00   1.6473E+02  0.000E+00  0.000E+00  0.000E+00  1.00603E+03  2.902E+00  4.208E+01  4.288E+00 -3.545E-01
   1   13    2     8     5    1.6473E+02 -3.5705E+00   1.6830E+02  0.000E+00  0.000E+00  0.000E+00  9.99804E+02  2.929E+00  4.248E+01  4.328E+00 -2.750E-01
   1   13    1     8     6    1.6830E+02 -2.4556E+00   1.7075E+02  0.000E+00  0.000E+00  0.000E+00  9.94824E+02  2.949E+00  4.276E+01  2.615E+00 -3.131E-01
   1    6    8     9     1    2.0000E+01  0.0000E+00   2.0000E+01  0.000E+00  0.000E+00  0.000E+00  1.07932E+03  8.168E-01  4.000E+00  0.000E+00  1.272E+00





UNSATURATED ZONE PACKAGE VOLUMETRIC BUDGET FOR  TIME STEP    30 STRESS PERIOD    5
  ------------------------------------------------------------------------------



     CUMULATIVE VOLUMES      L**3       RATES FOR THIS TIME STEP      L**3/T
     ------------------                 ------------------------

           IN:                                      IN:
           ---                                      ---
        INFILTRATION =    13033161.8086          INFILTRATION =           1.4533

          OUT:                                     OUT:
          ----                                     ----
              UZF ET =      517848.8167                UZF ET =           0.2553
        UZF RECHARGE =       73224.0000          UZF RECHARGE =       0.0000E+00

            IN - OUT =    12442088.9919              IN - OUT =           1.1980

          STORAGE:                                 STORAGE:
          --------                                 --------
      STORAGE CHANGE =    12441580.6102        STORAGE CHANGE =           1.1979

 PERCENT DISCREPANCY IS DIFFERENCE BETWEEN IN-OUT MINUS CHANGE IN STORAGE
 DIVIDED BY THE AVERAGE OF IN AND OUT TIMES 100

 PERCENT DISCREPANCY =           0.00     PERCENT DISCREPANCY =           0.01






1
  VOLUMETRIC BUDGET FOR ENTIRE MODEL AT END OF TIME STEP   30, STRESS PERIOD   5
  ------------------------------------------------------------------------------

     CUMULATIVE VOLUMES      L**3       RATES FOR THIS TIME STEP      L**3/T
     ------------------                 ------------------------

           IN:                                      IN:
           ---                                      ---
    AWU WELLS            =    12959938.0000      AWU WELLS            =           1.4533
    DIVERSION SEGMENTS   =           0.0000      DIVERSION SEGMENTS   =           0.0000
    GW IRRIGATION        =           0.0000      GW IRRIGATION        =           0.0000
    SW IRRIGATION        =           0.0000      SW IRRIGATION        =           0.0000
    EFFICIENCY FACTOR GW =           0.0000      EFFICIENCY FACTOR GW =           0.0000
    EFFICIENCY FACTOR SW =           0.0000      EFFICIENCY FACTOR SW =           0.0000

                TOTAL IN =    12959938.0000                  TOTAL IN =           1.4533

          OUT:                                     OUT:
          ----                                     ----
    AWU WELLS            =           0.0000      AWU WELLS            =           0.0000
    DIVERSION SEGMENTS   =           0.0000      DIVERSION SEGMENTS   =           0.0000
    GW IRRIGATION        =    12959938.0000      GW IRRIGATION        =           1.4533
    SW IRRIGATION        =           0.0000      SW IRRIGATION        =           0.0000
    EFFICIENCY FACTOR GW =           0.0000      EFFICIENCY FACTOR GW =           0.0000
    EFFICIENCY FACTOR SW =           0.0000      EFFICIENCY FACTOR SW =           0.0000

               TOTAL OUT =    12959938.0000                 TOTAL OUT =           1.4533

                IN - OUT =           0.0000                  IN - OUT =           0.0000

     PERCENT DISCREPANCY =           0.00         PERCENT DISCREPANCY =           0.00



1
  VOLUMETRIC BUDGET FOR ENTIRE MODEL AT END OF TIME STEP   30, STRESS PERIOD   5
  ------------------------------------------------------------------------------

     CUMULATIVE VOLUMES      L**3       RATES FOR THIS TIME STEP      L**3/T
     ------------------                 ------------------------

           IN:                                      IN:
           ---                                      ---
             STORAGE     =    18008816.0000               STORAGE     =           5.9718
       CONSTANT HEAD     =           0.0000         CONSTANT HEAD     =           0.0000
     HEAD DEP BOUNDS     =     3029298.0000       HEAD DEP BOUNDS     =           0.2859
      STREAM LEAKAGE     =   127116040.0000        STREAM LEAKAGE     =          11.4246
        UZF RECHARGE     =       73223.9531          UZF RECHARGE     =           0.0000
               GW ET     =           0.0000                 GW ET     =           0.0000
     SURFACE LEAKAGE     =           0.0000       SURFACE LEAKAGE     =           0.0000
    AWU WELLS            =           0.0000      AWU WELLS            =           0.0000

                TOTAL IN =   148227376.0000                  TOTAL IN =          17.6823

          OUT:                                     OUT:
          ----                                     ----
             STORAGE     =    22557262.0000               STORAGE     =           1.2244
       CONSTANT HEAD     =           0.0000         CONSTANT HEAD     =           0.0000
     HEAD DEP BOUNDS     =     3070970.2500       HEAD DEP BOUNDS     =           0.2950
      STREAM LEAKAGE     =   108087832.0000        STREAM LEAKAGE     =          14.1758
        UZF RECHARGE     =           0.0000          UZF RECHARGE     =           0.0000
               GW ET     =     1560200.7500                 GW ET     =           0.5340
     SURFACE LEAKAGE     =           0.0000       SURFACE LEAKAGE     =           0.0000
    AWU WELLS            =    12959938.0000      AWU WELLS            =           1.4533

               TOTAL OUT =   148236208.0000                 TOTAL OUT =          17.6825

                IN - OUT =       -8832.0000                  IN - OUT =      -1.8501E-04

     PERCENT DISCREPANCY =          -0.01         PERCENT DISCREPANCY =          -0.00






         TIME SUMMARY AT END OF TIME STEP   30 IN STRESS PERIOD    5
                    SECONDS     MINUTES      HOURS       DAYS        YEARS
                    -----------------------------------------------------------
   TIME STEP LENGTH  87600.      1460.0      24.333      1.0139     2.77588E-03
 STRESS PERIOD TIME 2.62800E+06  43800.      730.00      30.417     8.32763E-02
         TOTAL TIME 1.05984E+07 1.76640E+05  2944.0      122.67     0.33584    
1
1
                            STRESS PERIOD NO.    6, LENGTH =   2628000.    
                            -----------------------------------------------

                              NUMBER OF TIME STEPS =    30

                               MULTIPLIER FOR DELT =     1.000

                            INITIAL TIME STEP SIZE =   87600.00    

 REUSING NON-PARAMETER GHB CELLS FROM LAST STRESS PERIOD

      2 GHB CELLS

 REUSING STREAM SEGMENT DATA FROM LAST STRESS PERIOD



            AREAL INFILTRATION RATE
 READING ON UNIT   19 WITH FORMAT: (10F4.0)            

            1           2           3           4           5           6           7           8           9          10
 ........................................................................................................................
   1    0.000       0.000       0.000       0.000       0.000       0.000       0.000       0.000       0.000       0.000    
   2    0.000       0.000       0.000       0.000       0.000       0.000       0.000       0.000       0.000       0.000    
   3    0.000       0.000       0.000       0.000       0.000       0.000       0.000       0.000       0.000       0.000    
   4    0.000       0.000       0.000       0.000       0.000       0.000       0.000       0.000       0.000       0.000    
   5    0.000       0.000       0.000       0.000       0.000       0.000       0.000       0.000       0.000       0.000    
   6    0.000       0.000       0.000       0.000       0.000       0.000       0.000       0.000       0.000       0.000    
   7    0.000       0.000       0.000       0.000       0.000       0.000       0.000       0.000       0.000       0.000    
   8    0.000       0.000       0.000       0.000       0.000       0.000       0.000       0.000       0.000       0.000    
   9    0.000       0.000       0.000       0.000       0.000       0.000       0.000       0.000       0.000       0.000    
  10    0.000       0.000       0.000       0.000       0.000       0.000       0.000       0.000       0.000       0.000    
  11    0.000       0.000       0.000       0.000       0.000       0.000       0.000       0.000       0.000       0.000    
  12    0.000       0.000       0.000       0.000       0.000       0.000       0.000       0.000       0.000       0.000    
  13    0.000       0.000       0.000       0.000       0.000       0.000       0.000       0.000       0.000       0.000    
  14    0.000       0.000       0.000       0.000       0.000       0.000       0.000       0.000       0.000       0.000    
  15    0.000       0.000       0.000       0.000       0.000       0.000       0.000       0.000       0.000       0.000    

                  ET RATE =  1.000000E-08

 USING ET EXTINCTION DEPTH FROM PREVIOUS STRESS PERIOD. CURRENT PERIOD IS:       6

 USING EXTINCTION WATER CONTENT FROM PREVIOUS STRESS PERIOD. CURRENT PERIOD IS:       6

 PROCESSING AWU STRESS PERIOD DATA

 READING AWU STRESS PERIOD DATA

 READING IRRIGATION WELL

 END PROCESSING AWU STRESS PERIOD DATA OPTIONS
 
 SOLVING FOR HEAD 
                                                   Max.-Head-Change                         Max.-Flux-Residual
  Residual-Control   Outer-Iter.   Inner-Iter.     Column Row Layer    Maximum-Head-Change  Column Row Layer    Maximum-Flux-Residual          L2-NORM 
          0                 1           2             4   13     1      -0.2213001292E-01       4   13    1        -0.1267935467E+01      0.2299642977E+01
          0                 2           2             4   13     1       0.2174139500E-02       4   13    1         0.1257233203E+00      0.2248483517E+00
          0                 3           2             4   13     1      -0.1917889592E-03       4   13    1        -0.1119345754E-01      0.1973588205E-01
          0                 4           1             4   13     1       0.1479386364E-04       4   13    1         0.8712905856E-03      0.1529677770E-02

    ------------------------------------------------
       NWT REQUIRED            4 OUTER ITERATIONS 
       AND A TOTAL OF          7 INNER ITERATIONS.
    ------------------------------------------------

 NO OUTPUT CONTROL FOR STRESS PERIOD    6   TIME STEP    1
 
 SOLVING FOR HEAD 
                                                   Max.-Head-Change                         Max.-Flux-Residual
  Residual-Control   Outer-Iter.   Inner-Iter.     Column Row Layer    Maximum-Head-Change  Column Row Layer    Maximum-Flux-Residual          L2-NORM 
          0                 1           2             4   13     1      -0.2009970971E-01       4   13    1        -0.1151008523E+01      0.2134586980E+01
          0                 2           2             4   13     1       0.1974401797E-02       4   13    1         0.1141133696E+00      0.2087172222E+00
          0                 3           2             4   13     1      -0.1744017845E-03       4   13    1        -0.1017349535E-01      0.1832912977E-01
          0                 4           1             4   13     1       0.1369149310E-04       4   13    1         0.8061027347E-03      0.1431384573E-02

    ------------------------------------------------
       NWT REQUIRED            4 OUTER ITERATIONS 
       AND A TOTAL OF          7 INNER ITERATIONS.
    ------------------------------------------------

 NO OUTPUT CONTROL FOR STRESS PERIOD    6   TIME STEP    2
 
 SOLVING FOR HEAD 
                                                   Max.-Head-Change                         Max.-Flux-Residual
  Residual-Control   Outer-Iter.   Inner-Iter.     Column Row Layer    Maximum-Head-Change  Column Row Layer    Maximum-Flux-Residual          L2-NORM 
          0                 1           2             4   13     1      -0.1826574727E-01       4   13    1        -0.1045424666E+01      0.1984055390E+01
          0                 2           2             4   13     1       0.1793977460E-02       4   13    1         0.1036295056E+00      0.1940134123E+00
          0                 3           2             4   13     1      -0.1584386331E-03       4   13    1        -0.9237271970E-02      0.1703943061E-01
          0                 4           1             4   13     1       0.1244506896E-04       4   13    1         0.7323147875E-03      0.1328574248E-02

    ------------------------------------------------
       NWT REQUIRED            4 OUTER ITERATIONS 
       AND A TOTAL OF          7 INNER ITERATIONS.
    ------------------------------------------------

 NO OUTPUT CONTROL FOR STRESS PERIOD    6   TIME STEP    3
 
 SOLVING FOR HEAD 
                                                   Max.-Head-Change                         Max.-Flux-Residual
  Residual-Control   Outer-Iter.   Inner-Iter.     Column Row Layer    Maximum-Head-Change  Column Row Layer    Maximum-Flux-Residual          L2-NORM 
          0                 1           2             4   13     1      -0.1660846993E-01       4   13    1        -0.9500454577E+00      0.1846712769E+01
          0                 2           2             4   13     1       0.1630959392E-02       4   13    1         0.9416032136E-01      0.1806082020E+00
          0                 3           2             4   13     1      -0.1440115176E-03       4   13    1        -0.8391438204E-02      0.1586445639E-01
          0                 4           1             4   13     1       0.1136457591E-04       4   13    1         0.6683951815E-03      0.1239541151E-02

    ------------------------------------------------
       NWT REQUIRED            4 OUTER ITERATIONS 
       AND A TOTAL OF          7 INNER ITERATIONS.
    ------------------------------------------------

 NO OUTPUT CONTROL FOR STRESS PERIOD    6   TIME STEP    4
 
 SOLVING FOR HEAD 
                                                   Max.-Head-Change                         Max.-Flux-Residual
  Residual-Control   Outer-Iter.   Inner-Iter.     Column Row Layer    Maximum-Head-Change  Column Row Layer    Maximum-Flux-Residual          L2-NORM 
          0                 1           2             2   13     1      -0.1514615907E-01       4   13    1        -0.8638622844E+00      0.1721388903E+01
          0                 2           2             4   13     1       0.1483648645E-02       4   13    1         0.8560647604E-01      0.1683850647E+00
          0                 3           2             4   13     1      -0.1309876305E-03       4   13    1        -0.7628135049E-02      0.1479414083E-01
          0                 4           1             4   13     1       0.1028757530E-04       4   13    1         0.6046645713E-03      0.1154306557E-02

    ------------------------------------------------
       NWT REQUIRED            4 OUTER ITERATIONS 
       AND A TOTAL OF          7 INNER ITERATIONS.
    ------------------------------------------------

 NO OUTPUT CONTROL FOR STRESS PERIOD    6   TIME STEP    5
 
 SOLVING FOR HEAD 
                                                   Max.-Head-Change                         Max.-Flux-Residual
  Residual-Control   Outer-Iter.   Inner-Iter.     Column Row Layer    Maximum-Head-Change  Column Row Layer    Maximum-Flux-Residual          L2-NORM 
          0                 1           2             2   13     1      -0.1211659363E-01       2   13    1        -0.6809894674E+00      0.1423822149E+01
          0                 2           2             4   13     1       0.1153469414E-02       4   13    1         0.6654165196E-01      0.1394002163E+00
          0                 3           1             4   13     1      -0.1018007899E-03       4   13    1        -0.5927199320E-02      0.1225896196E-01
          0                 4           1             4   13     1       0.7983108726E-05       4   13    1         0.4691258564E-03      0.9565047492E-03

    ------------------------------------------------
       NWT REQUIRED            4 OUTER ITERATIONS 
       AND A TOTAL OF          6 INNER ITERATIONS.
    ------------------------------------------------

 NO OUTPUT CONTROL FOR STRESS PERIOD    6   TIME STEP    6
 
 SOLVING FOR HEAD 
                                                   Max.-Head-Change                         Max.-Flux-Residual
  Residual-Control   Outer-Iter.   Inner-Iter.     Column Row Layer    Maximum-Head-Change  Column Row Layer    Maximum-Flux-Residual          L2-NORM 
          0                 1           2             2   13     1      -0.5986720060E-02       2   13    1        -0.3366747828E+00      0.8888123683E+00
          0                 2           2             7   13     1      -0.9282815925E-03       7   13    1        -0.5072012532E-01      0.1021072861E+00
          0                 3           1             7   13     1       0.8276780936E-04       7   13    1         0.4563802552E-02      0.9093150817E-02

    ------------------------------------------------
       NWT REQUIRED            3 OUTER ITERATIONS 
       AND A TOTAL OF          5 INNER ITERATIONS.
    ------------------------------------------------

 NO OUTPUT CONTROL FOR STRESS PERIOD    6   TIME STEP    7
 
 SOLVING FOR HEAD 
                                                   Max.-Head-Change                         Max.-Flux-Residual
  Residual-Control   Outer-Iter.   Inner-Iter.     Column Row Layer    Maximum-Head-Change  Column Row Layer    Maximum-Flux-Residual          L2-NORM 
          0                 1           2             1   13     1      -0.5655623365E-02       2   13    1        -0.3112347387E+00      0.8413430508E+00
          0                 2           2             1   13     1       0.5429964886E-03       1   13    1         0.2987916030E-01      0.8298445882E-01
          0                 3           1             1   13     1      -0.4675334412E-04       1   13    1        -0.2596454509E-02      0.7359127833E-02

    ------------------------------------------------
       NWT REQUIRED            3 OUTER ITERATIONS 
       AND A TOTAL OF          5 INNER ITERATIONS.
    ------------------------------------------------

 NO OUTPUT CONTROL FOR STRESS PERIOD    6   TIME STEP    8
 
 SOLVING FOR HEAD 
                                                   Max.-Head-Change                         Max.-Flux-Residual
  Residual-Control   Outer-Iter.   Inner-Iter.     Column Row Layer    Maximum-Head-Change  Column Row Layer    Maximum-Flux-Residual          L2-NORM 
          0                 1           2             1   13     1      -0.5399149297E-02       1   13    1        -0.2944297969E+00      0.8009422502E+00
          0                 2           2             1   13     1       0.5188596631E-03       1   13    1         0.2855616395E-01      0.7905600965E-01
          0                 3           1             1   13     1      -0.4473017203E-04       1   13    1        -0.2484552003E-02      0.7016587810E-02

    ------------------------------------------------
       NWT REQUIRED            3 OUTER ITERATIONS 
       AND A TOTAL OF          5 INNER ITERATIONS.
    ------------------------------------------------

 NO OUTPUT CONTROL FOR STRESS PERIOD    6   TIME STEP    9
 
 SOLVING FOR HEAD 
                                                   Max.-Head-Change                         Max.-Flux-Residual
  Residual-Control   Outer-Iter.   Inner-Iter.     Column Row Layer    Maximum-Head-Change  Column Row Layer    Maximum-Flux-Residual          L2-NORM 
          0                 1           2             1   13     1      -0.5152966988E-02       1   13    1        -0.2810530391E+00      0.7639330426E+00
          0                 2           2             1   13     1       0.4956556215E-03       1   13    1         0.2728385310E-01      0.7545554333E-01
          0                 3           1             1   13     1      -0.4276928125E-04       1   13    1        -0.2376057694E-02      0.6701104627E-02

    ------------------------------------------------
       NWT REQUIRED            3 OUTER ITERATIONS 
       AND A TOTAL OF          5 INNER ITERATIONS.
    ------------------------------------------------

 NO OUTPUT CONTROL FOR STRESS PERIOD    6   TIME STEP   10
 
 SOLVING FOR HEAD 
                                                   Max.-Head-Change                         Max.-Flux-Residual
  Residual-Control   Outer-Iter.   Inner-Iter.     Column Row Layer    Maximum-Head-Change  Column Row Layer    Maximum-Flux-Residual          L2-NORM 
          0                 1           2             1   13     1      -0.4916815128E-02       1   13    1        -0.2682171224E+00      0.7299800029E+00
          0                 2           2             1   13     1       0.4733532851E-03       1   13    1         0.2606055076E-01      0.7215305345E-01
          0                 3           1             1   13     1      -0.4088992415E-04       1   13    1        -0.2272030400E-02      0.6413275164E-02

    ------------------------------------------------
       NWT REQUIRED            3 OUTER ITERATIONS 
       AND A TOTAL OF          5 INNER ITERATIONS.
    ------------------------------------------------

 NO OUTPUT CONTROL FOR STRESS PERIOD    6   TIME STEP   11
 
 SOLVING FOR HEAD 
                                                   Max.-Head-Change                         Max.-Flux-Residual
  Residual-Control   Outer-Iter.   Inner-Iter.     Column Row Layer    Maximum-Head-Change  Column Row Layer    Maximum-Flux-Residual          L2-NORM 
          0                 1           2             1   13     1      -0.4690394162E-02       1   13    1        -0.2559062918E+00      0.6988298690E+00
          0                 2           2             1   13     1       0.4519273870E-03       1   13    1         0.2488493985E-01      0.6912218842E-01
          0                 3           1             1   13     1      -0.3907945130E-04       1   13    1        -0.2171781311E-02      0.6149150226E-02

    ------------------------------------------------
       NWT REQUIRED            3 OUTER ITERATIONS 
       AND A TOTAL OF          5 INNER ITERATIONS.
    ------------------------------------------------

 NO OUTPUT CONTROL FOR STRESS PERIOD    6   TIME STEP   12
 
 SOLVING FOR HEAD 
                                                   Max.-Head-Change                         Max.-Flux-Residual
  Residual-Control   Outer-Iter.   Inner-Iter.     Column Row Layer    Maximum-Head-Change  Column Row Layer    Maximum-Flux-Residual          L2-NORM 
          0                 1           2             2   13     1      -0.6931777133E-02       2   13    1        -0.3897009738E+00      0.9051081801E+00
          0                 2           2             2   13     1       0.6619337329E-03       2   13    1         0.3754879000E-01      0.8948118783E-01
          0                 3           1             2   13     1      -0.5641274259E-04       2   13    1        -0.3228795107E-02      0.7904993948E-02

    ------------------------------------------------
       NWT REQUIRED            3 OUTER ITERATIONS 
       AND A TOTAL OF          5 INNER ITERATIONS.
    ------------------------------------------------

 NO OUTPUT CONTROL FOR STRESS PERIOD    6   TIME STEP   13
 
 SOLVING FOR HEAD 
                                                   Max.-Head-Change                         Max.-Flux-Residual
  Residual-Control   Outer-Iter.   Inner-Iter.     Column Row Layer    Maximum-Head-Change  Column Row Layer    Maximum-Flux-Residual          L2-NORM 
          0                 1           2             2   13     1      -0.1058912412E-01       2   13    1        -0.5947376926E+00      0.1228314114E+01
          0                 2           2             2   13     1       0.1007938213E-02       2   13    1         0.5712150568E-01      0.1202428299E+00
          0                 3           1             4   13     1      -0.8709593681E-04       4   13    1        -0.5063562354E-02      0.1057333169E-01

    ------------------------------------------------
       NWT REQUIRED            3 OUTER ITERATIONS 
       AND A TOTAL OF          5 INNER ITERATIONS.
    ------------------------------------------------

 NO OUTPUT CONTROL FOR STRESS PERIOD    6   TIME STEP   14
 
 SOLVING FOR HEAD 
                                                   Max.-Head-Change                         Max.-Flux-Residual
  Residual-Control   Outer-Iter.   Inner-Iter.     Column Row Layer    Maximum-Head-Change  Column Row Layer    Maximum-Flux-Residual          L2-NORM 
          0                 1           2             2   13     1      -0.9828341826E-02       2   13    1        -0.5519346001E+00      0.1153569794E+01
          0                 2           2             2   13     1       0.9356738788E-03       2   13    1         0.5301893035E-01      0.1129797909E+00
          0                 3           1             2   13     1      -0.7977926487E-04       4   13    1        -0.4613037951E-02      0.9941087800E-02

    ------------------------------------------------
       NWT REQUIRED            3 OUTER ITERATIONS 
       AND A TOTAL OF          5 INNER ITERATIONS.
    ------------------------------------------------

 NO OUTPUT CONTROL FOR STRESS PERIOD    6   TIME STEP   15
 
 SOLVING FOR HEAD 
                                                   Max.-Head-Change                         Max.-Flux-Residual
  Residual-Control   Outer-Iter.   Inner-Iter.     Column Row Layer    Maximum-Head-Change  Column Row Layer    Maximum-Flux-Residual          L2-NORM 
          0                 1           2             2   13     1      -0.9123111497E-02       2   13    1        -0.5122609322E+00      0.1085329691E+01
          0                 2           2             2   13     1       0.8684548710E-03       2   13    1         0.4920305569E-01      0.1063447786E+00
          0                 3           1             2   13     1      -0.7405602704E-04       2   13    1        -0.4233469166E-02      0.9361842424E-02

    ------------------------------------------------
       NWT REQUIRED            3 OUTER ITERATIONS 
       AND A TOTAL OF          5 INNER ITERATIONS.
    ------------------------------------------------

 NO OUTPUT CONTROL FOR STRESS PERIOD    6   TIME STEP   16
 
 SOLVING FOR HEAD 
                                                   Max.-Head-Change                         Max.-Flux-Residual
  Residual-Control   Outer-Iter.   Inner-Iter.     Column Row Layer    Maximum-Head-Change  Column Row Layer    Maximum-Flux-Residual          L2-NORM 
          0                 1           2             2   13     1      -0.8469889324E-02       2   13    1        -0.4755169306E+00      0.1023012566E+01
          0                 2           2             2   13     1       0.8065330096E-03       2   13    1         0.4568849188E-01      0.1002974804E+00
          0                 3           1             2   13     1      -0.6878442219E-04       2   13    1        -0.3931545648E-02      0.8834869367E-02

    ------------------------------------------------
       NWT REQUIRED            3 OUTER ITERATIONS 
       AND A TOTAL OF          5 INNER ITERATIONS.
    ------------------------------------------------

 NO OUTPUT CONTROL FOR STRESS PERIOD    6   TIME STEP   17
 
 SOLVING FOR HEAD 
                                                   Max.-Head-Change                         Max.-Flux-Residual
  Residual-Control   Outer-Iter.   Inner-Iter.     Column Row Layer    Maximum-Head-Change  Column Row Layer    Maximum-Flux-Residual          L2-NORM 
          0                 1           2             2   13     1      -0.7864350850E-02       2   13    1        -0.4414584999E+00      0.9644488023E+00
          0                 2           2             2   13     1       0.7489739891E-03       2   13    1         0.4242177765E-01      0.9460659239E-01
          0                 3           1             2   13     1      -0.6388621401E-04       2   13    1        -0.3651034426E-02      0.8338943932E-02

    ------------------------------------------------
       NWT REQUIRED            3 OUTER ITERATIONS 
       AND A TOTAL OF          5 INNER ITERATIONS.
    ------------------------------------------------

 NO OUTPUT CONTROL FOR STRESS PERIOD    6   TIME STEP   18
 
 SOLVING FOR HEAD 
                                                   Max.-Head-Change                         Max.-Flux-Residual
  Residual-Control   Outer-Iter.   Inner-Iter.     Column Row Layer    Maximum-Head-Change  Column Row Layer    Maximum-Flux-Residual          L2-NORM 
          0                 1           2             2   13     1      -0.7303013493E-02       2   13    1        -0.4098892328E+00      0.9103662626E+00
          0                 2           2             2   13     1       0.6955649430E-03       2   13    1         0.3939086739E-01      0.8934887365E-01
          0                 3           1             2   13     1      -0.5933465006E-04       2   13    1        -0.3390396227E-02      0.7879973768E-02

    ------------------------------------------------
       NWT REQUIRED            3 OUTER ITERATIONS 
       AND A TOTAL OF          5 INNER ITERATIONS.
    ------------------------------------------------

 NO OUTPUT CONTROL FOR STRESS PERIOD    6   TIME STEP   19
 
 SOLVING FOR HEAD 
                                                   Max.-Head-Change                         Max.-Flux-Residual
  Residual-Control   Outer-Iter.   Inner-Iter.     Column Row Layer    Maximum-Head-Change  Column Row Layer    Maximum-Flux-Residual          L2-NORM 
          0                 1           2             1   13     1      -0.4053760159E-02       1   13    1        -0.2213430171E+00      0.5510160087E+00
          0                 2           2             1   13     1       0.3941454242E-03       1   13    1         0.2171994635E-01      0.5473824499E-01
          0                 3           1             1   13     1      -0.3442169029E-04       1   13    1        -0.1914388188E-02      0.4891951470E-02

    ------------------------------------------------
       NWT REQUIRED            3 OUTER ITERATIONS 
       AND A TOTAL OF          5 INNER ITERATIONS.
    ------------------------------------------------

 NO OUTPUT CONTROL FOR STRESS PERIOD    6   TIME STEP   20
 
 SOLVING FOR HEAD 
                                                   Max.-Head-Change                         Max.-Flux-Residual
  Residual-Control   Outer-Iter.   Inner-Iter.     Column Row Layer    Maximum-Head-Change  Column Row Layer    Maximum-Flux-Residual          L2-NORM 
          0                 1           2             3    7     1      -0.2528031307E-02       3    2    1         0.1272622080E+00      0.4748124258E+00
          0                 2           2             7   13     1      -0.9631002528E-03       7   13    1        -0.5258176145E-01      0.7034809386E-01
          0                 3           1             7   13     1       0.8586335728E-04       7   13    1         0.4730818351E-02      0.6327589497E-02

    ------------------------------------------------
       NWT REQUIRED            3 OUTER ITERATIONS 
       AND A TOTAL OF          5 INNER ITERATIONS.
    ------------------------------------------------

 NO OUTPUT CONTROL FOR STRESS PERIOD    6   TIME STEP   21
 
 SOLVING FOR HEAD 
                                                   Max.-Head-Change                         Max.-Flux-Residual
  Residual-Control   Outer-Iter.   Inner-Iter.     Column Row Layer    Maximum-Head-Change  Column Row Layer    Maximum-Flux-Residual          L2-NORM 
          0                 1           2             3    7     1      -0.2513029949E-02       3    2    1         0.1266963088E+00      0.4545446337E+00
          0                 2           2             3    7     1       0.2490183026E-03       3    2    1        -0.1266964333E-01      0.4542676864E-01
          0                 3           1             3    7     1      -0.2220809632E-04       3    2    1         0.1140267907E-02      0.4085975956E-02

    ------------------------------------------------
       NWT REQUIRED            3 OUTER ITERATIONS 
       AND A TOTAL OF          5 INNER ITERATIONS.
    ------------------------------------------------

 NO OUTPUT CONTROL FOR STRESS PERIOD    6   TIME STEP   22
 
 SOLVING FOR HEAD 
                                                   Max.-Head-Change                         Max.-Flux-Residual
  Residual-Control   Outer-Iter.   Inner-Iter.     Column Row Layer    Maximum-Head-Change  Column Row Layer    Maximum-Flux-Residual          L2-NORM 
          0                 1           2             3    7     1      -0.2496651071E-02       3    2    1         0.1261377722E+00      0.4397637462E+00
          0                 2           2             3    7     1       0.2473953001E-03       3    2    1        -0.1261378950E-01      0.4385556438E-01
          0                 3           1             3    7     1      -0.2206335217E-04       3    2    1         0.1135241061E-02      0.3945172682E-02

    ------------------------------------------------
       NWT REQUIRED            3 OUTER ITERATIONS 
       AND A TOTAL OF          5 INNER ITERATIONS.
    ------------------------------------------------

 NO OUTPUT CONTROL FOR STRESS PERIOD    6   TIME STEP   23
 
 SOLVING FOR HEAD 
                                                   Max.-Head-Change                         Max.-Flux-Residual
  Residual-Control   Outer-Iter.   Inner-Iter.     Column Row Layer    Maximum-Head-Change  Column Row Layer    Maximum-Flux-Residual          L2-NORM 
          0                 1           2             3    7     1      -0.2479946558E-02       3    2    1         0.1255863931E+00      0.4265728998E+00
          0                 2           2             3    7     1       0.2457400306E-03       3    2    1        -0.1255865143E-01      0.4264027367E-01
          0                 3           1             3    7     1      -0.2191573146E-04       3    2    1         0.1130278653E-02      0.3836193071E-02

    ------------------------------------------------
       NWT REQUIRED            3 OUTER ITERATIONS 
       AND A TOTAL OF          5 INNER ITERATIONS.
    ------------------------------------------------

 NO OUTPUT CONTROL FOR STRESS PERIOD    6   TIME STEP   24
 
 SOLVING FOR HEAD 
                                                   Max.-Head-Change                         Max.-Flux-Residual
  Residual-Control   Outer-Iter.   Inner-Iter.     Column Row Layer    Maximum-Head-Change  Column Row Layer    Maximum-Flux-Residual          L2-NORM 
          0                 1           2             3    7     1      -0.2462478380E-02       3    2    1         0.1250420819E+00      0.4144886470E+00
          0                 2           2             3    7     1       0.2440090888E-03       3    2    1        -0.1250422015E-01      0.4143574126E-01
          0                 3           1             3    7     1      -0.2176136131E-04       3    2    1         0.1125379838E-02      0.3727966706E-02

    ------------------------------------------------
       NWT REQUIRED            3 OUTER ITERATIONS 
       AND A TOTAL OF          5 INNER ITERATIONS.
    ------------------------------------------------

 NO OUTPUT CONTROL FOR STRESS PERIOD    6   TIME STEP   25
 
 SOLVING FOR HEAD 
                                                   Max.-Head-Change                         Max.-Flux-Residual
  Residual-Control   Outer-Iter.   Inner-Iter.     Column Row Layer    Maximum-Head-Change  Column Row Layer    Maximum-Flux-Residual          L2-NORM 
          0                 1           2             3    7     1      -0.2443807758E-02       1    1    1         0.1245359438E+00      0.4034873413E+00
          0                 2           2             3    7     1       0.2421589964E-03       1    1    1        -0.1245360642E-01      0.4033883835E-01
          0                 3           1             3    7     1      -0.2159636538E-04       1    1    1         0.1120824593E-02      0.3629740456E-02

    ------------------------------------------------
       NWT REQUIRED            3 OUTER ITERATIONS 
       AND A TOTAL OF          5 INNER ITERATIONS.
    ------------------------------------------------

 NO OUTPUT CONTROL FOR STRESS PERIOD    6   TIME STEP   26
 
 SOLVING FOR HEAD 
                                                   Max.-Head-Change                         Max.-Flux-Residual
  Residual-Control   Outer-Iter.   Inner-Iter.     Column Row Layer    Maximum-Head-Change  Column Row Layer    Maximum-Flux-Residual          L2-NORM 
          0                 1           2             2   13     1      -0.4967092262E-02       2   13    1        -0.2790141376E+00      0.6625778234E+00
          0                 2           2             7   13     1      -0.8568628196E-03       7   13    1        -0.4703668797E-01      0.8150479646E-01
          0                 3           1             7   13     1       0.7638536544E-04       7   13    1         0.4231568658E-02      0.7259542102E-02

    ------------------------------------------------
       NWT REQUIRED            3 OUTER ITERATIONS 
       AND A TOTAL OF          5 INNER ITERATIONS.
    ------------------------------------------------

 NO OUTPUT CONTROL FOR STRESS PERIOD    6   TIME STEP   27
 
 SOLVING FOR HEAD 
                                                   Max.-Head-Change                         Max.-Flux-Residual
  Residual-Control   Outer-Iter.   Inner-Iter.     Column Row Layer    Maximum-Head-Change  Column Row Layer    Maximum-Flux-Residual          L2-NORM 
          0                 1           2             2   13     1      -0.6603812229E-02       2   13    1        -0.3708260174E+00      0.8062543089E+00
          0                 2           2             2   13     1       0.6278808819E-03       4   13    1         0.3592155917E-01      0.7902115397E-01
          0                 3           1             4   13     1      -0.5504691284E-04       4   13    1        -0.3197014352E-02      0.6959067334E-02

    ------------------------------------------------
       NWT REQUIRED            3 OUTER ITERATIONS 
       AND A TOTAL OF          5 INNER ITERATIONS.
    ------------------------------------------------

 NO OUTPUT CONTROL FOR STRESS PERIOD    6   TIME STEP   28
 
 SOLVING FOR HEAD 
                                                   Max.-Head-Change                         Max.-Flux-Residual
  Residual-Control   Outer-Iter.   Inner-Iter.     Column Row Layer    Maximum-Head-Change  Column Row Layer    Maximum-Flux-Residual          L2-NORM 
          0                 1           2             4   13     1       0.6054956960E-02       4   13    1         0.3501912788E+00      0.7689572907E+00
          0                 2           2             7   13     1      -0.2117038603E-02       7   13    1        -0.1154797172E+00      0.1360301687E+00
          0                 3           2             7   13     1       0.1887676233E-03       7   13    1         0.1039128299E-01      0.1217678591E-01
          0                 4           1             7   13     1      -0.1497947911E-04       7   13    1        -0.8321453474E-03      0.9698484573E-03

    ------------------------------------------------
       NWT REQUIRED            4 OUTER ITERATIONS 
       AND A TOTAL OF          7 INNER ITERATIONS.
    ------------------------------------------------

 NO OUTPUT CONTROL FOR STRESS PERIOD    6   TIME STEP   29
 
 SOLVING FOR HEAD 
                                                   Max.-Head-Change                         Max.-Flux-Residual
  Residual-Control   Outer-Iter.   Inner-Iter.     Column Row Layer    Maximum-Head-Change  Column Row Layer    Maximum-Flux-Residual          L2-NORM 
          0                 1           2             4   13     1       0.2116825952E-01       4   13    1         0.1225697383E+01      0.2209537373E+01
          0                 2           2             4   13     1      -0.2074824331E-02       4   13    1        -0.1212614968E+00      0.2146920258E+00
          0                 3           2             4   13     1       0.1828359705E-03       4   13    1         0.1078567432E-01      0.1872705975E-01
          0                 4           1             4   13     1      -0.1431973446E-04       4   13    1        -0.8526463116E-03      0.1449689821E-02

    ------------------------------------------------
       NWT REQUIRED            4 OUTER ITERATIONS 
       AND A TOTAL OF          7 INNER ITERATIONS.
    ------------------------------------------------

 NO OUTPUT CONTROL FOR STRESS PERIOD    6   TIME STEP   30



 STREAM LISTING     PERIOD      6   STEP       30

 LAYER ROW COL. STREAM  RCH.  FLOW INTO     FLOW TO   FLOW OUT OF   OVRLND.     DIRECT     STREAM       STREAM     STREAM     STREAM   STREAMBED  STREAMBED
                SEG.NO.  NO.  STRM. RCH.    AQUIFER    STRM. RCH.    RUNOFF     PRECIP       ET          HEAD       DEPTH      WIDTH   CONDCTNC.   GRADIENT

   1    1    1     1     1    9.9000E+01  4.7281E-01   9.8527E+01  0.000E+00  0.000E+00  0.000E+00  1.09484E+03  1.796E+00  2.191E+01  9.859E-02  1.599E+00
   1    2    2     1     2    9.8527E+01  7.3365E-01   9.7794E+01  0.000E+00  0.000E+00  0.000E+00  1.08985E+03  1.793E+00  2.187E+01  1.531E-01  1.598E+00
   1    3    3     1     3    9.7794E+01  6.2707E-01   9.7166E+01  0.000E+00  0.000E+00  0.000E+00  1.08421E+03  1.791E+00  2.181E+01  1.309E-01  1.597E+00
   1    3    4     1     4    9.7166E+01  5.7859E-01   9.6588E+01  0.000E+00  0.000E+00  0.000E+00  1.07920E+03  1.789E+00  2.177E+01  1.208E-01  1.596E+00
   1    4    5     2     1    9.4588E+01  4.4299E-01   9.4145E+01  0.000E+00  0.000E+00  0.000E+00  1.07461E+03  2.679E+00  1.200E+01  7.800E-02  1.893E+00
   1    5    6     2     2    9.4145E+01  3.4036E-01   9.3805E+01  0.000E+00  0.000E+00  0.000E+00  1.06918E+03  2.673E+00  1.200E+01  6.000E-02  1.891E+00
   1    6    6     2     3    9.3805E+01  3.4001E-01   9.3465E+01  0.000E+00  0.000E+00  0.000E+00  1.06446E+03  2.667E+00  1.200E+01  6.000E-02  1.889E+00
   1    7    6     2     4    9.3465E+01  3.3967E-01   9.3125E+01  0.000E+00  0.000E+00  0.000E+00  1.05974E+03  2.661E+00  1.200E+01  6.000E-02  1.887E+00
   1    8    6     2     5    9.3125E+01  3.3932E-01   9.2786E+01  0.000E+00  0.000E+00  0.000E+00  1.05501E+03  2.655E+00  1.200E+01  6.000E-02  1.885E+00
   1    3    5     3     1    2.0000E+00  2.8252E-01   1.7175E+00  0.000E+00  0.000E+00  0.000E+00  1.07555E+03  1.909E+00  9.636E+00  7.227E-02  1.955E+00
   1    3    6     3     2    1.7175E+00  2.4905E-01   1.4684E+00  0.000E+00  0.000E+00  0.000E+00  1.07264E+03  1.727E+00  8.909E+00  6.682E-02  1.864E+00
   1    3    7     3     3    1.4684E+00  1.9718E-01   1.2712E+00  0.000E+00  0.000E+00  0.000E+00  1.06987E+03  1.555E+00  8.218E+00  5.547E-02  1.777E+00
   1    4    8     3     4    1.2712E+00  2.2567E-01   1.0456E+00  0.000E+00  0.000E+00  0.000E+00  1.06682E+03  1.364E+00  7.455E+00  6.709E-02  1.682E+00
   1    5    8     3     5    1.0456E+00  1.5790E-01   8.8768E-01  0.000E+00  0.000E+00  0.000E+00  1.06362E+03  1.164E+00  6.655E+00  4.991E-02  1.582E+00
   1    6    8     3     6    8.8768E-01  5.5980E-02   8.3170E-01  0.000E+00  0.000E+00  0.000E+00  1.06158E+03  1.036E+00  6.145E+00  1.844E-02  1.518E+00
   1    5   10     4     1    1.0000E+01  9.0919E-02   9.9091E+00  0.000E+00  0.000E+00  0.000E+00  1.07836E+03  6.368E-01  1.000E+01  2.500E-02  1.212E+00
   1    5    9     4     2    9.9091E+00  1.8158E-01   9.7275E+00  0.000E+00  0.000E+00  0.000E+00  1.07154E+03  6.315E-01  1.000E+01  5.000E-02  1.211E+00
   1    6    8     4     3    9.7275E+00  1.2689E-01   9.6006E+00  0.000E+00  0.000E+00  0.000E+00  1.06381E+03  6.256E-01  1.000E+01  3.500E-02  1.209E+00
   1    6    8     5     1    1.0432E+01  2.2686E-01   1.0205E+01  0.000E+00  0.000E+00  0.000E+00  1.05868E+03  6.790E-01  1.542E+01  6.166E-02  1.226E+00
   1    7    7     5     2    1.0205E+01  2.7894E-01   9.9265E+00  0.000E+00  0.000E+00  0.000E+00  1.05417E+03  6.732E-01  1.519E+01  7.594E-02  1.224E+00
   1    8    7     5     3    9.9265E+00  1.9221E-01   9.7343E+00  0.000E+00  0.000E+00  0.000E+00  1.04992E+03  6.676E-01  1.497E+01  5.241E-02  1.223E+00
   1    8    6     5     4    9.7343E+00  1.3577E-01   9.5985E+00  0.000E+00  0.000E+00  0.000E+00  1.04691E+03  6.637E-01  1.482E+01  3.706E-02  1.221E+00
   1    9    6     6     1    8.2384E+01  3.2966E-01   8.2054E+01  0.000E+00  0.000E+00  0.000E+00  1.04522E+03  2.494E+00  1.200E+01  6.000E-02  1.831E+00
   1   10    7     6     2    8.2054E+01  3.2930E-01   8.1725E+01  0.000E+00  0.000E+00  0.000E+00  1.04067E+03  2.488E+00  1.200E+01  6.000E-02  1.829E+00
   1   11    7     6     3    8.1725E+01  3.2894E-01   8.1396E+01  0.000E+00  0.000E+00  0.000E+00  1.03612E+03  2.482E+00  1.200E+01  6.000E-02  1.827E+00
   1   12    7     6     4    8.1396E+01  3.2858E-01   8.1068E+01  0.000E+00  0.000E+00  0.000E+00  1.03157E+03  2.476E+00  1.200E+01  6.000E-02  1.825E+00
   1   13    7     6     5    8.1068E+01  3.0551E-02   8.1037E+01  0.000E+00  0.000E+00  0.000E+00  1.02838E+03  2.473E+00  1.200E+01  2.400E-02  4.243E-01
   1   14    9     7     1    1.5000E+02  1.3378E+00   1.4866E+02  0.000E+00  0.000E+00  0.000E+00  1.03987E+03  2.288E+00  5.529E+01  5.593E-01  7.973E-01
   1   13    8     7     2    1.4866E+02  1.8281E+00   1.4683E+02  0.000E+00  0.000E+00  0.000E+00  1.03478E+03  2.279E+00  5.526E+01  6.148E-01  9.912E-01
   1   13    7     7     3    1.4683E+02  1.4412E+00   1.4539E+02  0.000E+00  0.000E+00  0.000E+00  1.02969E+03  2.271E+00  5.522E+01  5.585E-01  8.603E-01
   1   13    6     8     1    2.2643E+02  1.1411E+00   2.2529E+02  0.000E+00  0.000E+00  0.000E+00  1.02516E+03  3.284E+00  4.762E+01  4.853E-01  7.839E-01
   1   13    5     8     2    2.2529E+02  3.2022E-01   2.2497E+02  0.000E+00  0.000E+00  0.000E+00  1.01891E+03  3.280E+00  4.756E+01  4.847E-01  2.202E-01
   1   13    4     8     3    2.2497E+02 -1.2941E+00   2.2626E+02  0.000E+00  0.000E+00  0.000E+00  1.01266E+03  3.283E+00  4.760E+01  4.851E+00 -8.893E-02
   1   13    3     8     4    2.2626E+02 -2.5513E+00   2.2881E+02  0.000E+00  0.000E+00  0.000E+00  1.00642E+03  3.293E+00  4.775E+01  4.866E+00 -1.748E-01
   1   13    2     8     5    2.2881E+02 -1.4174E+00   2.3023E+02  0.000E+00  0.000E+00  0.000E+00  1.00018E+03  3.304E+00  4.791E+01  4.882E+00 -9.678E-02
   1   13    1     8     6    2.3023E+02 -1.2528E+00   2.3148E+02  0.000E+00  0.000E+00  0.000E+00  9.95186E+02  3.311E+00  4.801E+01  2.936E+00 -1.423E-01
   1    6    8     9     1    2.0000E+01  0.0000E+00   2.0000E+01  0.000E+00  0.000E+00  0.000E+00  1.07932E+03  8.168E-01  4.000E+00  0.000E+00  1.272E+00





UNSATURATED ZONE PACKAGE VOLUMETRIC BUDGET FOR  TIME STEP    30 STRESS PERIOD    6
  ------------------------------------------------------------------------------



     CUMULATIVE VOLUMES      L**3       RATES FOR THIS TIME STEP      L**3/T
     ------------------                 ------------------------

           IN:                                      IN:
           ---                                      ---
        INFILTRATION =    19096828.8984          INFILTRATION =           1.8045

          OUT:                                     OUT:
          ----                                     ----
              UZF ET =     2081103.0022                UZF ET =           0.6809
        UZF RECHARGE =       73224.0000          UZF RECHARGE =       0.0000E+00

            IN - OUT =    16942501.8962              IN - OUT =           1.1237

          STORAGE:                                 STORAGE:
          --------                                 --------
      STORAGE CHANGE =    16942064.8611        STORAGE CHANGE =           1.1237

 PERCENT DISCREPANCY IS DIFFERENCE BETWEEN IN-OUT MINUS CHANGE IN STORAGE
 DIVIDED BY THE AVERAGE OF IN AND OUT TIMES 100

 PERCENT DISCREPANCY =           0.00     PERCENT DISCREPANCY =           0.00






1
  VOLUMETRIC BUDGET FOR ENTIRE MODEL AT END OF TIME STEP   30, STRESS PERIOD   6
  ------------------------------------------------------------------------------

     CUMULATIVE VOLUMES      L**3       RATES FOR THIS TIME STEP      L**3/T
     ------------------                 ------------------------

           IN:                                      IN:
           ---                                      ---
    AWU WELLS            =    19023606.0000      AWU WELLS            =           1.8045
    DIVERSION SEGMENTS   =           0.0000      DIVERSION SEGMENTS   =           0.0000
    GW IRRIGATION        =           0.0000      GW IRRIGATION        =           0.0000
    SW IRRIGATION        =           0.0000      SW IRRIGATION        =           0.0000
    EFFICIENCY FACTOR GW =           0.0000      EFFICIENCY FACTOR GW =           0.0000
    EFFICIENCY FACTOR SW =           0.0000      EFFICIENCY FACTOR SW =           0.0000

                TOTAL IN =    19023606.0000                  TOTAL IN =           1.8045

          OUT:                                     OUT:
          ----                                     ----
    AWU WELLS            =           0.0000      AWU WELLS            =           0.0000
    DIVERSION SEGMENTS   =           0.0000      DIVERSION SEGMENTS   =           0.0000
    GW IRRIGATION        =    19023606.0000      GW IRRIGATION        =           1.8045
    SW IRRIGATION        =           0.0000      SW IRRIGATION        =           0.0000
    EFFICIENCY FACTOR GW =           0.0000      EFFICIENCY FACTOR GW =           0.0000
    EFFICIENCY FACTOR SW =           0.0000      EFFICIENCY FACTOR SW =           0.0000

               TOTAL OUT =    19023606.0000                 TOTAL OUT =           1.8045

                IN - OUT =           0.0000                  IN - OUT =           0.0000

     PERCENT DISCREPANCY =           0.00         PERCENT DISCREPANCY =           0.00



1
  VOLUMETRIC BUDGET FOR ENTIRE MODEL AT END OF TIME STEP   30, STRESS PERIOD   6
  ------------------------------------------------------------------------------

     CUMULATIVE VOLUMES      L**3       RATES FOR THIS TIME STEP      L**3/T
     ------------------                 ------------------------

           IN:                                      IN:
           ---                                      ---
             STORAGE     =    28487584.0000               STORAGE     =           1.3779
       CONSTANT HEAD     =           0.0000         CONSTANT HEAD     =           0.0000
     HEAD DEP BOUNDS     =     3780624.0000       HEAD DEP BOUNDS     =           0.2859
      STREAM LEAKAGE     =   157952192.0000        STREAM LEAKAGE     =          14.0315
        UZF RECHARGE     =       73223.9531          UZF RECHARGE     =           0.0000
               GW ET     =           0.0000                 GW ET     =           0.0000
     SURFACE LEAKAGE     =           0.0000       SURFACE LEAKAGE     =           0.0000
    AWU WELLS            =           0.0000      AWU WELLS            =           0.0000

                TOTAL IN =   190293616.0000                  TOTAL IN =          15.6953

          OUT:                                     OUT:
          ----                                     ----
             STORAGE     =    25252550.0000               STORAGE     =           6.0552
       CONSTANT HEAD     =           0.0000         CONSTANT HEAD     =           0.0000
     HEAD DEP BOUNDS     =     3835611.5000       HEAD DEP BOUNDS     =           0.2893
      STREAM LEAKAGE     =   137897200.0000        STREAM LEAKAGE     =           6.5155
        UZF RECHARGE     =           0.0000          UZF RECHARGE     =           0.0000
               GW ET     =     4289873.0000                 GW ET     =           1.0305
     SURFACE LEAKAGE     =           0.0000       SURFACE LEAKAGE     =           0.0000
    AWU WELLS            =    19023606.0000      AWU WELLS            =           1.8045

               TOTAL OUT =   190298832.0000                 TOTAL OUT =          15.6950

                IN - OUT =       -5216.0000                  IN - OUT =       2.3174E-04

     PERCENT DISCREPANCY =          -0.00         PERCENT DISCREPANCY =           0.00






         TIME SUMMARY AT END OF TIME STEP   30 IN STRESS PERIOD    6
                    SECONDS     MINUTES      HOURS       DAYS        YEARS
                    -----------------------------------------------------------
   TIME STEP LENGTH  87600.      1460.0      24.333      1.0139     2.77588E-03
 STRESS PERIOD TIME 2.62800E+06  43800.      730.00      30.417     8.32763E-02
         TOTAL TIME 1.32264E+07 2.20440E+05  3674.0      153.08     0.41912    
1
1
                            STRESS PERIOD NO.    7, LENGTH =   2628000.    
                            -----------------------------------------------

                              NUMBER OF TIME STEPS =    30

                               MULTIPLIER FOR DELT =     1.000

                            INITIAL TIME STEP SIZE =   87600.00    

 REUSING NON-PARAMETER GHB CELLS FROM LAST STRESS PERIOD

      2 GHB CELLS

 REUSING STREAM SEGMENT DATA FROM LAST STRESS PERIOD



            AREAL INFILTRATION RATE
 READING ON UNIT   19 WITH FORMAT: (10F4.0)            

            1           2           3           4           5           6           7           8           9          10
 ........................................................................................................................
   1    0.000       0.000       0.000       0.000       0.000       0.000       0.000       0.000       0.000       0.000    
   2    0.000       0.000       0.000       0.000       0.000       0.000       0.000       0.000       0.000       0.000    
   3    0.000       0.000       0.000       0.000       0.000       0.000       0.000       0.000       0.000       0.000    
   4    0.000       0.000       0.000       0.000       0.000       0.000       0.000       0.000       0.000       0.000    
   5    0.000       0.000       0.000       0.000       0.000       0.000       0.000       0.000       0.000       0.000    
   6    0.000       0.000       0.000       0.000       0.000       0.000       0.000       0.000       0.000       0.000    
   7    0.000       0.000       0.000       0.000       0.000       0.000       0.000       0.000       0.000       0.000    
   8    0.000       0.000       0.000       0.000       0.000       0.000       0.000       0.000       0.000       0.000    
   9    0.000       0.000       0.000       0.000       0.000       0.000       0.000       0.000       0.000       0.000    
  10    0.000       0.000       0.000       0.000       0.000       0.000       0.000       0.000       0.000       0.000    
  11    0.000       0.000       0.000       0.000       0.000       0.000       0.000       0.000       0.000       0.000    
  12    0.000       0.000       0.000       0.000       0.000       0.000       0.000       0.000       0.000       0.000    
  13    0.000       0.000       0.000       0.000       0.000       0.000       0.000       0.000       0.000       0.000    
  14    0.000       0.000       0.000       0.000       0.000       0.000       0.000       0.000       0.000       0.000    
  15    0.000       0.000       0.000       0.000       0.000       0.000       0.000       0.000       0.000       0.000    

                  ET RATE =  3.000000E-08

 USING ET EXTINCTION DEPTH FROM PREVIOUS STRESS PERIOD. CURRENT PERIOD IS:       7

 USING EXTINCTION WATER CONTENT FROM PREVIOUS STRESS PERIOD. CURRENT PERIOD IS:       7

 PROCESSING AWU STRESS PERIOD DATA

 READING AWU STRESS PERIOD DATA

 READING IRRIGATION WELL

 END PROCESSING AWU STRESS PERIOD DATA OPTIONS
 
 SOLVING FOR HEAD 
                                                   Max.-Head-Change                         Max.-Flux-Residual
  Residual-Control   Outer-Iter.   Inner-Iter.     Column Row Layer    Maximum-Head-Change  Column Row Layer    Maximum-Flux-Residual          L2-NORM 
          0                 1           2             2   13     1       0.1488847952E-01       2   13    1         0.8504135652E+00      0.2108231091E+01
          0                 2           2             2   13     1      -0.1420648332E-02       2   13    1        -0.8190049395E-01      0.2088510807E+00
          0                 3           1             2   13     1       0.1214644520E-03       2   13    1         0.7067468122E-02      0.1861319356E-01
          0                 4           1             2   13     1      -0.9186446364E-05       2   13    1        -0.5394689242E-03      0.1476424831E-02

    ------------------------------------------------
       NWT REQUIRED            4 OUTER ITERATIONS 
       AND A TOTAL OF          6 INNER ITERATIONS.
    ------------------------------------------------

 NO OUTPUT CONTROL FOR STRESS PERIOD    7   TIME STEP    1
 
 SOLVING FOR HEAD 
                                                   Max.-Head-Change                         Max.-Flux-Residual
  Residual-Control   Outer-Iter.   Inner-Iter.     Column Row Layer    Maximum-Head-Change  Column Row Layer    Maximum-Flux-Residual          L2-NORM 
          0                 1           2             2   13     1       0.1358543891E-01       2   13    1         0.7759041536E+00      0.1998185190E+01
          0                 2           2             2   13     1      -0.1296902690E-02       2   13    1        -0.7475816222E-01      0.1981031942E+00
          0                 3           1             2   13     1       0.1109261244E-03       2   13    1         0.6453531778E-02      0.1766922738E-01
          0                 4           1             2   13     1      -0.8390362690E-05       2   13    1        -0.4926782622E-03      0.1401590294E-02

    ------------------------------------------------
       NWT REQUIRED            4 OUTER ITERATIONS 
       AND A TOTAL OF          6 INNER ITERATIONS.
    ------------------------------------------------

 NO OUTPUT CONTROL FOR STRESS PERIOD    7   TIME STEP    2
 
 SOLVING FOR HEAD 
                                                   Max.-Head-Change                         Max.-Flux-Residual
  Residual-Control   Outer-Iter.   Inner-Iter.     Column Row Layer    Maximum-Head-Change  Column Row Layer    Maximum-Flux-Residual          L2-NORM 
          0                 1           2             2   13     1       0.1239722150E-01       2   13    1         0.7079655158E+00      0.1899226641E+01
          0                 2           2             2   13     1      -0.1183966220E-02       2   13    1        -0.6824028256E-01      0.1884317670E+00
          0                 3           1             4    7     1      -0.1026770653E-03       2   13    1         0.5894282758E-02      0.1681953725E-01
          0                 4           1             4    7     1       0.8149805306E-05       2   13    1        -0.4508748034E-03      0.1335536624E-02

    ------------------------------------------------
       NWT REQUIRED            4 OUTER ITERATIONS 
       AND A TOTAL OF          6 INNER ITERATIONS.
    ------------------------------------------------

 NO OUTPUT CONTROL FOR STRESS PERIOD    7   TIME STEP    3
 
 SOLVING FOR HEAD 
                                                   Max.-Head-Change                         Max.-Flux-Residual
  Residual-Control   Outer-Iter.   Inner-Iter.     Column Row Layer    Maximum-Head-Change  Column Row Layer    Maximum-Flux-Residual          L2-NORM 
          0                 1           2             2   13     1       0.1815204216E-01       2   13    1         0.1036672136E+01      0.2245331304E+01
          0                 2           2             2   13     1      -0.1722277643E-02       2   13    1        -0.9926823856E-01      0.2208479515E+00
          0                 3           2             2   13     1       0.1463381192E-03       2   13    1         0.8512263626E-02      0.1953328254E-01
          0                 4           1             2   13     1      -0.1100046783E-04       2   13    1        -0.6457758809E-03      0.1536274753E-02

    ------------------------------------------------
       NWT REQUIRED            4 OUTER ITERATIONS 
       AND A TOTAL OF          7 INNER ITERATIONS.
    ------------------------------------------------

 NO OUTPUT CONTROL FOR STRESS PERIOD    7   TIME STEP    4
 
 SOLVING FOR HEAD 
                                                   Max.-Head-Change                         Max.-Flux-Residual
  Residual-Control   Outer-Iter.   Inner-Iter.     Column Row Layer    Maximum-Head-Change  Column Row Layer    Maximum-Flux-Residual          L2-NORM 
          0                 1           2             2   13     1       0.1753611144E-01       2   13    1         0.1001502977E+01      0.2180909889E+01
          0                 2           2             2   13     1      -0.1663479686E-02       2   13    1        -0.9587869994E-01      0.2144950826E+00
          0                 3           2             2   13     1       0.1412543280E-03       2   13    1         0.8216353855E-02      0.1896694200E-01
          0                 4           1             2   13     1      -0.1060775048E-04       2   13    1        -0.6226950854E-03      0.1490945084E-02

    ------------------------------------------------
       NWT REQUIRED            4 OUTER ITERATIONS 
       AND A TOTAL OF          7 INNER ITERATIONS.
    ------------------------------------------------

 OUTPUT CONTROL FOR STRESS PERIOD    7   TIME STEP    5
    PRINT BUDGET
    SAVE BUDGET
 UBDSV1 SAVING "         STORAGE" ON UNIT 102 AT TIME STEP     5, STRESS PERIOD   7
 UBDSV2 SAVING "   CONSTANT HEAD" ON UNIT 102 AT TIME STEP     5, STRESS PERIOD   7
 UBDSV1 SAVING "FLOW RIGHT FACE " ON UNIT 102 AT TIME STEP     5, STRESS PERIOD   7
 UBDSV1 SAVING "FLOW FRONT FACE " ON UNIT 102 AT TIME STEP     5, STRESS PERIOD   7

  HEAD DEP BOUNDS   PERIOD    7   STEP     5
 BOUNDARY      1   LAYER   1   ROW    13   COL     1   RATE   -0.289973    
 BOUNDARY      2   LAYER   1   ROW    14   COL     9   RATE    0.285897    



 STREAM LISTING     PERIOD      7   STEP        5

 LAYER ROW COL. STREAM  RCH.  FLOW INTO     FLOW TO   FLOW OUT OF   OVRLND.     DIRECT     STREAM       STREAM     STREAM     STREAM   STREAMBED  STREAMBED
                SEG.NO.  NO.  STRM. RCH.    AQUIFER    STRM. RCH.    RUNOFF     PRECIP       ET          HEAD       DEPTH      WIDTH   CONDCTNC.   GRADIENT

   1    1    1     1     1    9.9000E+01  4.7281E-01   9.8527E+01  0.000E+00  0.000E+00  0.000E+00  1.09484E+03  1.796E+00  2.191E+01  9.859E-02  1.599E+00
   1    2    2     1     2    9.8527E+01  7.3365E-01   9.7794E+01  0.000E+00  0.000E+00  0.000E+00  1.08985E+03  1.793E+00  2.187E+01  1.531E-01  1.598E+00
   1    3    3     1     3    9.7794E+01  6.2707E-01   9.7166E+01  0.000E+00  0.000E+00  0.000E+00  1.08421E+03  1.791E+00  2.181E+01  1.309E-01  1.597E+00
   1    3    4     1     4    9.7166E+01  5.7859E-01   9.6588E+01  0.000E+00  0.000E+00  0.000E+00  1.07920E+03  1.789E+00  2.177E+01  1.208E-01  1.596E+00
   1    4    5     2     1    9.4588E+01  4.4299E-01   9.4145E+01  0.000E+00  0.000E+00  0.000E+00  1.07461E+03  2.679E+00  1.200E+01  7.800E-02  1.893E+00
   1    5    6     2     2    9.4145E+01  3.4036E-01   9.3805E+01  0.000E+00  0.000E+00  0.000E+00  1.06918E+03  2.673E+00  1.200E+01  6.000E-02  1.891E+00
   1    6    6     2     3    9.3805E+01  3.4001E-01   9.3465E+01  0.000E+00  0.000E+00  0.000E+00  1.06446E+03  2.667E+00  1.200E+01  6.000E-02  1.889E+00
   1    7    6     2     4    9.3465E+01  3.3967E-01   9.3125E+01  0.000E+00  0.000E+00  0.000E+00  1.05974E+03  2.661E+00  1.200E+01  6.000E-02  1.887E+00
   1    8    6     2     5    9.3125E+01  3.3932E-01   9.2786E+01  0.000E+00  0.000E+00  0.000E+00  1.05501E+03  2.655E+00  1.200E+01  6.000E-02  1.885E+00
   1    3    5     3     1    2.0000E+00  2.8252E-01   1.7175E+00  0.000E+00  0.000E+00  0.000E+00  1.07555E+03  1.909E+00  9.636E+00  7.227E-02  1.955E+00
   1    3    6     3     2    1.7175E+00  2.4905E-01   1.4684E+00  0.000E+00  0.000E+00  0.000E+00  1.07264E+03  1.727E+00  8.909E+00  6.682E-02  1.864E+00
   1    3    7     3     3    1.4684E+00  1.9718E-01   1.2712E+00  0.000E+00  0.000E+00  0.000E+00  1.06987E+03  1.555E+00  8.218E+00  5.547E-02  1.777E+00
   1    4    8     3     4    1.2712E+00  2.2567E-01   1.0456E+00  0.000E+00  0.000E+00  0.000E+00  1.06682E+03  1.364E+00  7.455E+00  6.709E-02  1.682E+00
   1    5    8     3     5    1.0456E+00  1.5790E-01   8.8768E-01  0.000E+00  0.000E+00  0.000E+00  1.06362E+03  1.164E+00  6.655E+00  4.991E-02  1.582E+00
   1    6    8     3     6    8.8768E-01  5.5980E-02   8.3170E-01  0.000E+00  0.000E+00  0.000E+00  1.06158E+03  1.036E+00  6.145E+00  1.844E-02  1.518E+00
   1    5   10     4     1    1.0000E+01  9.0919E-02   9.9091E+00  0.000E+00  0.000E+00  0.000E+00  1.07836E+03  6.368E-01  1.000E+01  2.500E-02  1.212E+00
   1    5    9     4     2    9.9091E+00  1.8158E-01   9.7275E+00  0.000E+00  0.000E+00  0.000E+00  1.07154E+03  6.315E-01  1.000E+01  5.000E-02  1.211E+00
   1    6    8     4     3    9.7275E+00  1.2689E-01   9.6006E+00  0.000E+00  0.000E+00  0.000E+00  1.06381E+03  6.256E-01  1.000E+01  3.500E-02  1.209E+00
   1    6    8     5     1    1.0432E+01  2.2686E-01   1.0205E+01  0.000E+00  0.000E+00  0.000E+00  1.05868E+03  6.790E-01  1.542E+01  6.166E-02  1.226E+00
   1    7    7     5     2    1.0205E+01  2.7894E-01   9.9265E+00  0.000E+00  0.000E+00  0.000E+00  1.05417E+03  6.732E-01  1.519E+01  7.594E-02  1.224E+00
   1    8    7     5     3    9.9265E+00  1.9221E-01   9.7343E+00  0.000E+00  0.000E+00  0.000E+00  1.04992E+03  6.676E-01  1.497E+01  5.241E-02  1.223E+00
   1    8    6     5     4    9.7343E+00  1.3577E-01   9.5985E+00  0.000E+00  0.000E+00  0.000E+00  1.04691E+03  6.637E-01  1.482E+01  3.706E-02  1.221E+00
   1    9    6     6     1    1.0238E+02  3.5054E-01   1.0203E+02  0.000E+00  0.000E+00  0.000E+00  1.04557E+03  2.842E+00  1.200E+01  6.000E-02  1.947E+00
   1   10    7     6     2    1.0203E+02  3.5018E-01   1.0168E+02  0.000E+00  0.000E+00  0.000E+00  1.04102E+03  2.836E+00  1.200E+01  6.000E-02  1.945E+00
   1   11    7     6     3    1.0168E+02  3.4983E-01   1.0133E+02  0.000E+00  0.000E+00  0.000E+00  1.03647E+03  2.831E+00  1.200E+01  6.000E-02  1.944E+00
   1   12    7     6     4    1.0133E+02  3.4948E-01   1.0098E+02  0.000E+00  0.000E+00  0.000E+00  1.03192E+03  2.825E+00  1.200E+01  6.000E-02  1.942E+00
   1   13    7     6     5    1.0098E+02  3.8930E-02   1.0095E+02  0.000E+00  0.000E+00  0.000E+00  1.02873E+03  2.821E+00  1.200E+01  2.400E-02  5.407E-01
   1   14    9     7     1    1.5000E+02  1.3378E+00   1.4866E+02  0.000E+00  0.000E+00  0.000E+00  1.03987E+03  2.288E+00  5.529E+01  5.593E-01  7.973E-01
   1   13    8     7     2    1.4866E+02  1.8280E+00   1.4683E+02  0.000E+00  0.000E+00  0.000E+00  1.03478E+03  2.279E+00  5.526E+01  6.148E-01  9.911E-01
   1   13    7     7     3    1.4683E+02  1.4416E+00   1.4539E+02  0.000E+00  0.000E+00  0.000E+00  1.02969E+03  2.271E+00  5.522E+01  5.585E-01  8.605E-01
   1   13    6     8     1    2.4634E+02  1.2274E+00   2.4511E+02  0.000E+00  0.000E+00  0.000E+00  1.02526E+03  3.390E+00  4.915E+01  5.008E-01  8.169E-01
   1   13    5     8     2    2.4511E+02  3.9178E-01   2.4472E+02  0.000E+00  0.000E+00  0.000E+00  1.01901E+03  3.385E+00  4.909E+01  5.002E-01  2.611E-01
   1   13    4     8     3    2.4472E+02 -1.0857E+00   2.4580E+02  0.000E+00  0.000E+00  0.000E+00  1.01276E+03  3.387E+00  4.911E+01  5.005E+00 -7.231E-02
   1   13    3     8     4    2.4580E+02 -2.3591E+00   2.4816E+02  0.000E+00  0.000E+00  0.000E+00  1.00652E+03  3.396E+00  4.924E+01  5.018E+00 -1.567E-01
   1   13    2     8     5    2.4816E+02 -1.3016E+00   2.4946E+02  0.000E+00  0.000E+00  0.000E+00  1.00028E+03  3.406E+00  4.938E+01  5.032E+00 -8.622E-02
   1   13    1     8     6    2.4946E+02 -1.0415E+00   2.5051E+02  0.000E+00  0.000E+00  0.000E+00  9.95286E+02  3.412E+00  4.947E+01  3.025E+00 -1.148E-01
   1    6    8     9     1    0.0000E+00  0.0000E+00   0.0000E+00  0.000E+00  0.000E+00  0.000E+00  1.07850E+03  0.000E+00  4.000E+00  0.000E+00  1.000E+00



 UBDSV3 SAVING "           GW ET" ON UNIT  61 AT TIME STEP     5, STRESS PERIOD   7
 UBDSV3 SAVING "    UZF RECHARGE" ON UNIT  61 AT TIME STEP     5, STRESS PERIOD   7
 UBDSV3 SAVING " SURFACE LEAKAGE" ON UNIT  61 AT TIME STEP     5, STRESS PERIOD   7
 UBDSV3 SAVING "       HORT+DUNN" ON UNIT  61 AT TIME STEP     5, STRESS PERIOD   7
 UBDSV3 SAVING "  STORAGE CHANGE" ON UNIT  61 AT TIME STEP     5, STRESS PERIOD   7


UNSATURATED ZONE PACKAGE VOLUMETRIC BUDGET FOR  TIME STEP     5 STRESS PERIOD    7
  ------------------------------------------------------------------------------



     CUMULATIVE VOLUMES      L**3       RATES FOR THIS TIME STEP      L**3/T
     ------------------                 ------------------------

           IN:                                      IN:
           ---                                      ---
        INFILTRATION =    21362518.7578          INFILTRATION =           5.0279

          OUT:                                     OUT:
          ----                                     ----
              UZF ET =     2998164.2834                UZF ET =           2.1253
        UZF RECHARGE =       73224.0000          UZF RECHARGE =       0.0000E+00

            IN - OUT =    18291130.4744              IN - OUT =           2.9026

          STORAGE:                                 STORAGE:
          --------                                 --------
      STORAGE CHANGE =    18290693.4410        STORAGE CHANGE =           2.9026

 PERCENT DISCREPANCY IS DIFFERENCE BETWEEN IN-OUT MINUS CHANGE IN STORAGE
 DIVIDED BY THE AVERAGE OF IN AND OUT TIMES 100

 PERCENT DISCREPANCY =           0.00     PERCENT DISCREPANCY =           0.00






 

 AWU WELLS                PERIOD    7   STEP   5
 AWU WELL      1   LAYER   1   ROW     6   COL     4   RATE   -0.837988    
 AWU WELL      2   LAYER   1   ROW     6   COL     5   RATE   -0.837988    
 AWU WELL      3   LAYER   1   ROW     7   COL     4   RATE   -0.837988    
 AWU WELL      4   LAYER   1   ROW     7   COL     5   RATE   -0.837988    
 AWU WELL      5   LAYER   1   ROW     8   COL     4   RATE   -0.837988    
 AWU WELL      6   LAYER   1   ROW     8   COL     5   RATE   -0.837988    
 
 

 GW IRRIGATION            PERIOD    7   STEP   5
 AWU WELL      1   ROW     6   COL     4   RATE    0.837988    
 AWU WELL      2   ROW     6   COL     5   RATE    0.837988    
 AWU WELL      3   ROW     7   COL     4   RATE    0.837988    
 AWU WELL      4   ROW     7   COL     5   RATE    0.837988    
 AWU WELL      5   ROW     8   COL     4   RATE    0.837988    
 AWU WELL      6   ROW     8   COL     5   RATE    0.837988    
 
1
  VOLUMETRIC BUDGET FOR ENTIRE MODEL AT END OF TIME STEP    5, STRESS PERIOD   7
  ------------------------------------------------------------------------------

     CUMULATIVE VOLUMES      L**3       RATES FOR THIS TIME STEP      L**3/T
     ------------------                 ------------------------

           IN:                                      IN:
           ---                                      ---
    AWU WELLS            =    21289296.0000      AWU WELLS            =           5.0279
    DIVERSION SEGMENTS   =           0.0000      DIVERSION SEGMENTS   =           0.0000
    GW IRRIGATION        =           0.0000      GW IRRIGATION        =           0.0000
    SW IRRIGATION        =           0.0000      SW IRRIGATION        =           0.0000
    EFFICIENCY FACTOR GW =           0.0000      EFFICIENCY FACTOR GW =           0.0000
    EFFICIENCY FACTOR SW =           0.0000      EFFICIENCY FACTOR SW =           0.0000

                TOTAL IN =    21289296.0000                  TOTAL IN =           5.0279

          OUT:                                     OUT:
          ----                                     ----
    AWU WELLS            =           0.0000      AWU WELLS            =           0.0000
    DIVERSION SEGMENTS   =           0.0000      DIVERSION SEGMENTS   =           0.0000
    GW IRRIGATION        =    21289296.0000      GW IRRIGATION        =           5.0279
    SW IRRIGATION        =           0.0000      SW IRRIGATION        =           0.0000
    EFFICIENCY FACTOR GW =           0.0000      EFFICIENCY FACTOR GW =           0.0000
    EFFICIENCY FACTOR SW =           0.0000      EFFICIENCY FACTOR SW =           0.0000

               TOTAL OUT =    21289296.0000                 TOTAL OUT =           5.0279

                IN - OUT =           0.0000                  IN - OUT =           0.0000

     PERCENT DISCREPANCY =           0.00         PERCENT DISCREPANCY =           0.00



1
  VOLUMETRIC BUDGET FOR ENTIRE MODEL AT END OF TIME STEP    5, STRESS PERIOD   7
  ------------------------------------------------------------------------------

     CUMULATIVE VOLUMES      L**3       RATES FOR THIS TIME STEP      L**3/T
     ------------------                 ------------------------

           IN:                                      IN:
           ---                                      ---
             STORAGE     =    30622992.0000               STORAGE     =           4.6134
       CONSTANT HEAD     =           0.0000         CONSTANT HEAD     =           0.0000
     HEAD DEP BOUNDS     =     3905846.5000       HEAD DEP BOUNDS     =           0.2859
      STREAM LEAKAGE     =   164140128.0000        STREAM LEAKAGE     =          14.2815
        UZF RECHARGE     =       73223.9531          UZF RECHARGE     =           0.0000
               GW ET     =           0.0000                 GW ET     =           0.0000
     SURFACE LEAKAGE     =           0.0000       SURFACE LEAKAGE     =           0.0000
    AWU WELLS            =           0.0000      AWU WELLS            =           0.0000

                TOTAL IN =   198742176.0000                  TOTAL IN =          19.1808

          OUT:                                     OUT:
          ----                                     ----
             STORAGE     =    27145668.0000               STORAGE     =           4.9564
       CONSTANT HEAD     =           0.0000         CONSTANT HEAD     =           0.0000
     HEAD DEP BOUNDS     =     3962461.7500       HEAD DEP BOUNDS     =           0.2900
      STREAM LEAKAGE     =   140699648.0000        STREAM LEAKAGE     =           5.7879
        UZF RECHARGE     =           0.0000          UZF RECHARGE     =           0.0000
               GW ET     =     5650346.5000                 GW ET     =           3.1185
     SURFACE LEAKAGE     =           0.0000       SURFACE LEAKAGE     =           0.0000
    AWU WELLS            =    21289296.0000      AWU WELLS            =           5.0279

               TOTAL OUT =   198747424.0000                 TOTAL OUT =          19.1807

                IN - OUT =       -5248.0000                  IN - OUT =       1.5259E-05

     PERCENT DISCREPANCY =          -0.00         PERCENT DISCREPANCY =           0.00






         TIME SUMMARY AT END OF TIME STEP    5 IN STRESS PERIOD    7
                    SECONDS     MINUTES      HOURS       DAYS        YEARS
                    -----------------------------------------------------------
   TIME STEP LENGTH  87600.      1460.0      24.333      1.0139     2.77588E-03
 STRESS PERIOD TIME 4.38000E+05  7300.0      121.67      5.0694     1.38794E-02
         TOTAL TIME 1.36644E+07 2.27740E+05  3795.7      158.15     0.43300    
1
 
 SOLVING FOR HEAD 
                                                   Max.-Head-Change                         Max.-Flux-Residual
  Residual-Control   Outer-Iter.   Inner-Iter.     Column Row Layer    Maximum-Head-Change  Column Row Layer    Maximum-Flux-Residual          L2-NORM 
          0                 1           2             2   13     1       0.1601190443E-01       2   13    1         0.9143524086E+00      0.2051355515E+01
          0                 2           2             2   13     1      -0.1519720309E-02       2   13    1        -0.8758235423E-01      0.2019725295E+00
          0                 3           1             2   13     1       0.1291268804E-03       2   13    1         0.7509922300E-02      0.1788360010E-01
          0                 4           1             2   13     1      -0.9703140776E-05       2   13    1        -0.5694356323E-03      0.1410830730E-02

    ------------------------------------------------
       NWT REQUIRED            4 OUTER ITERATIONS 
       AND A TOTAL OF          6 INNER ITERATIONS.
    ------------------------------------------------

 NO OUTPUT CONTROL FOR STRESS PERIOD    7   TIME STEP    6
 
 SOLVING FOR HEAD 
                                                   Max.-Head-Change                         Max.-Flux-Residual
  Residual-Control   Outer-Iter.   Inner-Iter.     Column Row Layer    Maximum-Head-Change  Column Row Layer    Maximum-Flux-Residual          L2-NORM 
          0                 1           2             2   13     1       0.1462112115E-01       2   13    1         0.8348349882E+00      0.1935614910E+01
          0                 2           2             2   13     1      -0.1388430364E-02       2   13    1        -0.8000609735E-01      0.1907856064E+00
          0                 3           1             2   13     1       0.1180373558E-03       2   13    1         0.6864131325E-02      0.1691060468E-01
          0                 4           1             2   13     1      -0.8859638100E-05       2   13    1        -0.5199324423E-03      0.1332981423E-02

    ------------------------------------------------
       NWT REQUIRED            4 OUTER ITERATIONS 
       AND A TOTAL OF          6 INNER ITERATIONS.
    ------------------------------------------------

 NO OUTPUT CONTROL FOR STRESS PERIOD    7   TIME STEP    7
 
 SOLVING FOR HEAD 
                                                   Max.-Head-Change                         Max.-Flux-Residual
  Residual-Control   Outer-Iter.   Inner-Iter.     Column Row Layer    Maximum-Head-Change  Column Row Layer    Maximum-Flux-Residual          L2-NORM 
          0                 1           2             2   13     1       0.1335223427E-01       2   13    1         0.7622912335E+00      0.1832305281E+01
          0                 2           2             2   13     1      -0.1268570096E-02       2   13    1        -0.7308987873E-01      0.1808007523E+00
          0                 3           1             2   13     1       0.1079146203E-03       2   13    1         0.6274624468E-02      0.1604397307E-01
          0                 4           1             2   13     1      -0.8117345996E-05       2   13    1        -0.4763020925E-03      0.1266485578E-02

    ------------------------------------------------
       NWT REQUIRED            4 OUTER ITERATIONS 
       AND A TOTAL OF          6 INNER ITERATIONS.
    ------------------------------------------------

 NO OUTPUT CONTROL FOR STRESS PERIOD    7   TIME STEP    8
 
 SOLVING FOR HEAD 
                                                   Max.-Head-Change                         Max.-Flux-Residual
  Residual-Control   Outer-Iter.   Inner-Iter.     Column Row Layer    Maximum-Head-Change  Column Row Layer    Maximum-Flux-Residual          L2-NORM 
          0                 1           2             2   13     1       0.1219441601E-01       2   13    1         0.6961015539E+00      0.1740090994E+01
          0                 2           2             2   13     1      -0.1159087940E-02       2   13    1        -0.6677295449E-01      0.1718842042E+00
          0                 3           1             2   13     1       0.9864980847E-04       2   13    1         0.5735117628E-02      0.1527003687E-01

    ------------------------------------------------
       NWT REQUIRED            3 OUTER ITERATIONS 
       AND A TOTAL OF          5 INNER ITERATIONS.
    ------------------------------------------------

 NO OUTPUT CONTROL FOR STRESS PERIOD    7   TIME STEP    9
 
 SOLVING FOR HEAD 
                                                   Max.-Head-Change                         Max.-Flux-Residual
  Residual-Control   Outer-Iter.   Inner-Iter.     Column Row Layer    Maximum-Head-Change  Column Row Layer    Maximum-Flux-Residual          L2-NORM 
          0                 1           2             2   13     1       0.1092736874E-01       2   13    1         0.6236784775E+00      0.1644749380E+01
          0                 2           2             2   13     1      -0.1039365149E-02       2   13    1        -0.5986641346E-01      0.1626943086E+00
          0                 3           1             2   13     1       0.8853931215E-04       2   13    1         0.5146486579E-02      0.1447615892E-01

    ------------------------------------------------
       NWT REQUIRED            3 OUTER ITERATIONS 
       AND A TOTAL OF          5 INNER ITERATIONS.
    ------------------------------------------------

 OUTPUT CONTROL FOR STRESS PERIOD    7   TIME STEP   10
    PRINT BUDGET
    SAVE BUDGET
 UBDSV1 SAVING "         STORAGE" ON UNIT 102 AT TIME STEP    10, STRESS PERIOD   7
 UBDSV2 SAVING "   CONSTANT HEAD" ON UNIT 102 AT TIME STEP    10, STRESS PERIOD   7
 UBDSV1 SAVING "FLOW RIGHT FACE " ON UNIT 102 AT TIME STEP    10, STRESS PERIOD   7
 UBDSV1 SAVING "FLOW FRONT FACE " ON UNIT 102 AT TIME STEP    10, STRESS PERIOD   7

  HEAD DEP BOUNDS   PERIOD    7   STEP    10
 BOUNDARY      1   LAYER   1   ROW    13   COL     1   RATE   -0.290991    
 BOUNDARY      2   LAYER   1   ROW    14   COL     9   RATE    0.285897    



 STREAM LISTING     PERIOD      7   STEP       10

 LAYER ROW COL. STREAM  RCH.  FLOW INTO     FLOW TO   FLOW OUT OF   OVRLND.     DIRECT     STREAM       STREAM     STREAM     STREAM   STREAMBED  STREAMBED
                SEG.NO.  NO.  STRM. RCH.    AQUIFER    STRM. RCH.    RUNOFF     PRECIP       ET          HEAD       DEPTH      WIDTH   CONDCTNC.   GRADIENT

   1    1    1     1     1    9.9000E+01  4.7281E-01   9.8527E+01  0.000E+00  0.000E+00  0.000E+00  1.09484E+03  1.796E+00  2.191E+01  9.859E-02  1.599E+00
   1    2    2     1     2    9.8527E+01  7.3365E-01   9.7794E+01  0.000E+00  0.000E+00  0.000E+00  1.08985E+03  1.793E+00  2.187E+01  1.531E-01  1.598E+00
   1    3    3     1     3    9.7794E+01  6.2707E-01   9.7166E+01  0.000E+00  0.000E+00  0.000E+00  1.08421E+03  1.791E+00  2.181E+01  1.309E-01  1.597E+00
   1    3    4     1     4    9.7166E+01  5.7859E-01   9.6588E+01  0.000E+00  0.000E+00  0.000E+00  1.07920E+03  1.789E+00  2.177E+01  1.208E-01  1.596E+00
   1    4    5     2     1    9.4588E+01  4.4299E-01   9.4145E+01  0.000E+00  0.000E+00  0.000E+00  1.07461E+03  2.679E+00  1.200E+01  7.800E-02  1.893E+00
   1    5    6     2     2    9.4145E+01  3.4036E-01   9.3805E+01  0.000E+00  0.000E+00  0.000E+00  1.06918E+03  2.673E+00  1.200E+01  6.000E-02  1.891E+00
   1    6    6     2     3    9.3805E+01  3.4001E-01   9.3465E+01  0.000E+00  0.000E+00  0.000E+00  1.06446E+03  2.667E+00  1.200E+01  6.000E-02  1.889E+00
   1    7    6     2     4    9.3465E+01  3.3967E-01   9.3125E+01  0.000E+00  0.000E+00  0.000E+00  1.05974E+03  2.661E+00  1.200E+01  6.000E-02  1.887E+00
   1    8    6     2     5    9.3125E+01  3.3932E-01   9.2786E+01  0.000E+00  0.000E+00  0.000E+00  1.05501E+03  2.655E+00  1.200E+01  6.000E-02  1.885E+00
   1    3    5     3     1    2.0000E+00  2.8252E-01   1.7175E+00  0.000E+00  0.000E+00  0.000E+00  1.07555E+03  1.909E+00  9.636E+00  7.227E-02  1.955E+00
   1    3    6     3     2    1.7175E+00  2.4905E-01   1.4684E+00  0.000E+00  0.000E+00  0.000E+00  1.07264E+03  1.727E+00  8.909E+00  6.682E-02  1.864E+00
   1    3    7     3     3    1.4684E+00  1.9718E-01   1.2712E+00  0.000E+00  0.000E+00  0.000E+00  1.06987E+03  1.555E+00  8.218E+00  5.547E-02  1.777E+00
   1    4    8     3     4    1.2712E+00  2.2567E-01   1.0456E+00  0.000E+00  0.000E+00  0.000E+00  1.06682E+03  1.364E+00  7.455E+00  6.709E-02  1.682E+00
   1    5    8     3     5    1.0456E+00  1.5790E-01   8.8768E-01  0.000E+00  0.000E+00  0.000E+00  1.06362E+03  1.164E+00  6.655E+00  4.991E-02  1.582E+00
   1    6    8     3     6    8.8768E-01  5.5980E-02   8.3170E-01  0.000E+00  0.000E+00  0.000E+00  1.06158E+03  1.036E+00  6.145E+00  1.844E-02  1.518E+00
   1    5   10     4     1    1.0000E+01  9.0919E-02   9.9091E+00  0.000E+00  0.000E+00  0.000E+00  1.07836E+03  6.368E-01  1.000E+01  2.500E-02  1.212E+00
   1    5    9     4     2    9.9091E+00  1.8158E-01   9.7275E+00  0.000E+00  0.000E+00  0.000E+00  1.07154E+03  6.315E-01  1.000E+01  5.000E-02  1.211E+00
   1    6    8     4     3    9.7275E+00  1.2689E-01   9.6006E+00  0.000E+00  0.000E+00  0.000E+00  1.06381E+03  6.256E-01  1.000E+01  3.500E-02  1.209E+00
   1    6    8     5     1    1.0432E+01  2.2686E-01   1.0205E+01  0.000E+00  0.000E+00  0.000E+00  1.05868E+03  6.790E-01  1.542E+01  6.166E-02  1.226E+00
   1    7    7     5     2    1.0205E+01  2.7894E-01   9.9265E+00  0.000E+00  0.000E+00  0.000E+00  1.05417E+03  6.732E-01  1.519E+01  7.594E-02  1.224E+00
   1    8    7     5     3    9.9265E+00  1.9221E-01   9.7343E+00  0.000E+00  0.000E+00  0.000E+00  1.04992E+03  6.676E-01  1.497E+01  5.241E-02  1.223E+00
   1    8    6     5     4    9.7343E+00  1.3577E-01   9.5985E+00  0.000E+00  0.000E+00  0.000E+00  1.04691E+03  6.637E-01  1.482E+01  3.706E-02  1.221E+00
   1    9    6     6     1    1.0184E+02  3.4999E-01   1.0149E+02  0.000E+00  0.000E+00  0.000E+00  1.04556E+03  2.833E+00  1.200E+01  6.000E-02  1.944E+00
   1   10    7     6     2    1.0149E+02  3.4964E-01   1.0114E+02  0.000E+00  0.000E+00  0.000E+00  1.04101E+03  2.827E+00  1.200E+01  6.000E-02  1.942E+00
   1   11    7     6     3    1.0114E+02  3.4928E-01   1.0079E+02  0.000E+00  0.000E+00  0.000E+00  1.03646E+03  2.821E+00  1.200E+01  6.000E-02  1.940E+00
   1   12    7     6     4    1.0079E+02  3.4893E-01   1.0044E+02  0.000E+00  0.000E+00  0.000E+00  1.03191E+03  2.816E+00  1.200E+01  6.000E-02  1.939E+00
   1   13    7     6     5    1.0044E+02  3.8699E-02   1.0040E+02  0.000E+00  0.000E+00  0.000E+00  1.02872E+03  2.812E+00  1.200E+01  2.400E-02  5.375E-01
   1   14    9     7     1    1.5000E+02  1.3379E+00   1.4866E+02  0.000E+00  0.000E+00  0.000E+00  1.03987E+03  2.288E+00  5.529E+01  5.593E-01  7.973E-01
   1   13    8     7     2    1.4866E+02  1.8278E+00   1.4683E+02  0.000E+00  0.000E+00  0.000E+00  1.03478E+03  2.279E+00  5.526E+01  6.148E-01  9.910E-01
   1   13    7     7     3    1.4683E+02  1.4414E+00   1.4539E+02  0.000E+00  0.000E+00  0.000E+00  1.02969E+03  2.271E+00  5.522E+01  5.585E-01  8.603E-01
   1   13    6     8     1    2.4579E+02  1.2206E+00   2.4457E+02  0.000E+00  0.000E+00  0.000E+00  1.02526E+03  3.387E+00  4.911E+01  5.004E-01  8.130E-01
   1   13    5     8     2    2.4457E+02  3.9367E-01   2.4418E+02  0.000E+00  0.000E+00  0.000E+00  1.01901E+03  3.383E+00  4.905E+01  4.998E-01  2.625E-01
   1   13    4     8     3    2.4418E+02 -1.3337E+00   2.4551E+02  0.000E+00  0.000E+00  0.000E+00  1.01276E+03  3.385E+00  4.908E+01  5.002E+00 -8.888E-02
   1   13    3     8     4    2.4551E+02 -2.5982E+00   2.4811E+02  0.000E+00  0.000E+00  0.000E+00  1.00652E+03  3.395E+00  4.923E+01  5.017E+00 -1.726E-01
   1   13    2     8     5    2.4811E+02 -1.6075E+00   2.4972E+02  0.000E+00  0.000E+00  0.000E+00  1.00028E+03  3.406E+00  4.939E+01  5.033E+00 -1.065E-01
   1   13    1     8     6    2.4972E+02 -1.1185E+00   2.5084E+02  0.000E+00  0.000E+00  0.000E+00  9.95288E+02  3.413E+00  4.949E+01  3.026E+00 -1.232E-01
   1    6    8     9     1    5.4795E-01  0.0000E+00   5.4795E-01  0.000E+00  0.000E+00  0.000E+00  1.07859E+03  9.435E-02  4.000E+00  0.000E+00  1.031E+00



 UBDSV3 SAVING "           GW ET" ON UNIT  61 AT TIME STEP    10, STRESS PERIOD   7
 UBDSV3 SAVING "    UZF RECHARGE" ON UNIT  61 AT TIME STEP    10, STRESS PERIOD   7
 UBDSV3 SAVING " SURFACE LEAKAGE" ON UNIT  61 AT TIME STEP    10, STRESS PERIOD   7
 UBDSV3 SAVING "       HORT+DUNN" ON UNIT  61 AT TIME STEP    10, STRESS PERIOD   7
 UBDSV3 SAVING "  STORAGE CHANGE" ON UNIT  61 AT TIME STEP    10, STRESS PERIOD   7


UNSATURATED ZONE PACKAGE VOLUMETRIC BUDGET FOR  TIME STEP    10 STRESS PERIOD    7
  ------------------------------------------------------------------------------



     CUMULATIVE VOLUMES      L**3       RATES FOR THIS TIME STEP      L**3/T
     ------------------                 ------------------------

           IN:                                      IN:
           ---                                      ---
        INFILTRATION =    23486968.4766          INFILTRATION =           4.7437

          OUT:                                     OUT:
          ----                                     ----
              UZF ET =     3946804.9827                UZF ET =           2.1907
        UZF RECHARGE =       73224.0000          UZF RECHARGE =       0.0000E+00

            IN - OUT =    19466939.4939              IN - OUT =           2.5530

          STORAGE:                                 STORAGE:
          --------                                 --------
      STORAGE CHANGE =    19466502.4403        STORAGE CHANGE =           2.5530

 PERCENT DISCREPANCY IS DIFFERENCE BETWEEN IN-OUT MINUS CHANGE IN STORAGE
 DIVIDED BY THE AVERAGE OF IN AND OUT TIMES 100

 PERCENT DISCREPANCY =           0.00     PERCENT DISCREPANCY =           0.00






 

 AWU WELLS                PERIOD    7   STEP  10
 AWU WELL      1   LAYER   1   ROW     6   COL     4   RATE   -0.790611    
 AWU WELL      2   LAYER   1   ROW     6   COL     5   RATE   -0.790611    
 AWU WELL      3   LAYER   1   ROW     7   COL     4   RATE   -0.790611    
 AWU WELL      4   LAYER   1   ROW     7   COL     5   RATE   -0.790611    
 AWU WELL      5   LAYER   1   ROW     8   COL     4   RATE   -0.790611    
 AWU WELL      6   LAYER   1   ROW     8   COL     5   RATE   -0.790611    
 
 

 GW IRRIGATION            PERIOD    7   STEP  10
 AWU WELL      1   ROW     6   COL     4   RATE    0.790611    
 AWU WELL      2   ROW     6   COL     5   RATE    0.790611    
 AWU WELL      3   ROW     7   COL     4   RATE    0.790611    
 AWU WELL      4   ROW     7   COL     5   RATE    0.790611    
 AWU WELL      5   ROW     8   COL     4   RATE    0.790611    
 AWU WELL      6   ROW     8   COL     5   RATE    0.790611    
 
1
  VOLUMETRIC BUDGET FOR ENTIRE MODEL AT END OF TIME STEP   10, STRESS PERIOD   7
  ------------------------------------------------------------------------------

     CUMULATIVE VOLUMES      L**3       RATES FOR THIS TIME STEP      L**3/T
     ------------------                 ------------------------

           IN:                                      IN:
           ---                                      ---
    AWU WELLS            =    23413744.0000      AWU WELLS            =           4.7437
    DIVERSION SEGMENTS   =           0.0000      DIVERSION SEGMENTS   =           0.0000
    GW IRRIGATION        =           0.0000      GW IRRIGATION        =           0.0000
    SW IRRIGATION        =           0.0000      SW IRRIGATION        =           0.0000
    EFFICIENCY FACTOR GW =           0.0000      EFFICIENCY FACTOR GW =           0.0000
    EFFICIENCY FACTOR SW =           0.0000      EFFICIENCY FACTOR SW =           0.0000

                TOTAL IN =    23413744.0000                  TOTAL IN =           4.7437

          OUT:                                     OUT:
          ----                                     ----
    AWU WELLS            =           0.0000      AWU WELLS            =           0.0000
    DIVERSION SEGMENTS   =           0.0000      DIVERSION SEGMENTS   =           0.0000
    GW IRRIGATION        =    23413744.0000      GW IRRIGATION        =           4.7437
    SW IRRIGATION        =           0.0000      SW IRRIGATION        =           0.0000
    EFFICIENCY FACTOR GW =           0.0000      EFFICIENCY FACTOR GW =           0.0000
    EFFICIENCY FACTOR SW =           0.0000      EFFICIENCY FACTOR SW =           0.0000

               TOTAL OUT =    23413744.0000                 TOTAL OUT =           4.7437

                IN - OUT =           0.0000                  IN - OUT =           0.0000

     PERCENT DISCREPANCY =           0.00         PERCENT DISCREPANCY =           0.00



1
  VOLUMETRIC BUDGET FOR ENTIRE MODEL AT END OF TIME STEP   10, STRESS PERIOD   7
  ------------------------------------------------------------------------------

     CUMULATIVE VOLUMES      L**3       RATES FOR THIS TIME STEP      L**3/T
     ------------------                 ------------------------

           IN:                                      IN:
           ---                                      ---
             STORAGE     =    32531288.0000               STORAGE     =           4.2055
       CONSTANT HEAD     =           0.0000         CONSTANT HEAD     =           0.0000
     HEAD DEP BOUNDS     =     4031069.0000       HEAD DEP BOUNDS     =           0.2859
      STREAM LEAKAGE     =   170394608.0000        STREAM LEAKAGE     =          14.2738
        UZF RECHARGE     =       73223.9531          UZF RECHARGE     =           0.0000
               GW ET     =           0.0000                 GW ET     =           0.0000
     SURFACE LEAKAGE     =           0.0000       SURFACE LEAKAGE     =           0.0000
    AWU WELLS            =           0.0000      AWU WELLS            =           0.0000

                TOTAL IN =   207030176.0000                  TOTAL IN =          18.7651

          OUT:                                     OUT:
          ----                                     ----
             STORAGE     =    29038318.0000               STORAGE     =           3.9262
       CONSTANT HEAD     =           0.0000         CONSTANT HEAD     =           0.0000
     HEAD DEP BOUNDS     =     4089745.5000       HEAD DEP BOUNDS     =           0.2910
      STREAM LEAKAGE     =   143469616.0000        STREAM LEAKAGE     =           6.6579
        UZF RECHARGE     =           0.0000          UZF RECHARGE     =           0.0000
               GW ET     =     7023945.5000                 GW ET     =           3.1462
     SURFACE LEAKAGE     =           0.0000       SURFACE LEAKAGE     =           0.0000
    AWU WELLS            =    23413744.0000      AWU WELLS            =           4.7437

               TOTAL OUT =   207035376.0000                 TOTAL OUT =          18.7649

                IN - OUT =       -5200.0000                  IN - OUT =       2.0027E-04

     PERCENT DISCREPANCY =          -0.00         PERCENT DISCREPANCY =           0.00






         TIME SUMMARY AT END OF TIME STEP   10 IN STRESS PERIOD    7
                    SECONDS     MINUTES      HOURS       DAYS        YEARS
                    -----------------------------------------------------------
   TIME STEP LENGTH  87600.      1460.0      24.333      1.0139     2.77588E-03
 STRESS PERIOD TIME 8.76000E+05  14600.      243.33      10.139     2.77588E-02
         TOTAL TIME 1.41024E+07 2.35040E+05  3917.3      163.22     0.44688    
1
 
 SOLVING FOR HEAD 
                                                   Max.-Head-Change                         Max.-Flux-Residual
  Residual-Control   Outer-Iter.   Inner-Iter.     Column Row Layer    Maximum-Head-Change  Column Row Layer    Maximum-Flux-Residual          L2-NORM 
          0                 1           2             4    7     1      -0.9501168174E-02       4    7    1        -0.4981704703E+00      0.1315288250E+01
          0                 2           2             4    7     1       0.9414779467E-03       4    7    1         0.4981695236E-01      0.1315106628E+00
          0                 3           1             4    7     1      -0.8396344730E-04       4    7    1        -0.4483527199E-02      0.1183430690E-01

    ------------------------------------------------
       NWT REQUIRED            3 OUTER ITERATIONS 
       AND A TOTAL OF          5 INNER ITERATIONS.
    ------------------------------------------------

 NO OUTPUT CONTROL FOR STRESS PERIOD    7   TIME STEP   11
 
 SOLVING FOR HEAD 
                                                   Max.-Head-Change                         Max.-Flux-Residual
  Residual-Control   Outer-Iter.   Inner-Iter.     Column Row Layer    Maximum-Head-Change  Column Row Layer    Maximum-Flux-Residual          L2-NORM 
          0                 1           2             4    7     1      -0.9280832038E-02       4    7    1        -0.4867264807E+00      0.1286291909E+01
          0                 2           2             4    7     1       0.9196446652E-03       4    7    1         0.4867255499E-01      0.1286135956E+00
          0                 3           1             4    7     1      -0.8201629879E-04       4    7    1        -0.4380531418E-02      0.1157380881E-01

    ------------------------------------------------
       NWT REQUIRED            3 OUTER ITERATIONS 
       AND A TOTAL OF          5 INNER ITERATIONS.
    ------------------------------------------------

 NO OUTPUT CONTROL FOR STRESS PERIOD    7   TIME STEP   12
 
 SOLVING FOR HEAD 
                                                   Max.-Head-Change                         Max.-Flux-Residual
  Residual-Control   Outer-Iter.   Inner-Iter.     Column Row Layer    Maximum-Head-Change  Column Row Layer    Maximum-Flux-Residual          L2-NORM 
          0                 1           2             4    7     1      -0.9068979323E-02       4    7    1        -0.4757141695E+00      0.1259285536E+01
          0                 2           2             4    7     1       0.8986520157E-03       4    7    1         0.4757132564E-01      0.1259152553E+00
          0                 3           1             4    7     1      -0.8014411993E-04       4    7    1        -0.4281420746E-02      0.1133107878E-01

    ------------------------------------------------
       NWT REQUIRED            3 OUTER ITERATIONS 
       AND A TOTAL OF          5 INNER ITERATIONS.
    ------------------------------------------------

 NO OUTPUT CONTROL FOR STRESS PERIOD    7   TIME STEP   13
 
 SOLVING FOR HEAD 
                                                   Max.-Head-Change                         Max.-Flux-Residual
  Residual-Control   Outer-Iter.   Inner-Iter.     Column Row Layer    Maximum-Head-Change  Column Row Layer    Maximum-Flux-Residual          L2-NORM 
          0                 1           2             4    7     1      -0.8865517153E-02       4    7    1        -0.4651298872E+00      0.1234109337E+01
          0                 2           2             4    7     1       0.8784907946E-03       4    7    1         0.4651289932E-01      0.1233995269E+00
          0                 3           1             4    7     1      -0.7834608947E-04       4    7    1        -0.4186162335E-02      0.1110485664E-01

    ------------------------------------------------
       NWT REQUIRED            3 OUTER ITERATIONS 
       AND A TOTAL OF          5 INNER ITERATIONS.
    ------------------------------------------------

 NO OUTPUT CONTROL FOR STRESS PERIOD    7   TIME STEP   14
 
 SOLVING FOR HEAD 
                                                   Max.-Head-Change                         Max.-Flux-Residual
  Residual-Control   Outer-Iter.   Inner-Iter.     Column Row Layer    Maximum-Head-Change  Column Row Layer    Maximum-Flux-Residual          L2-NORM 
          0                 1           2             4    7     1      -0.8669811458E-02       4    7    1        -0.4549412523E+00      0.1210593687E+01
          0                 2           2             4    7     1       0.8590981716E-03       4    7    1         0.4549403784E-01      0.1210496837E+00
          0                 3           1             4    7     1      -0.7661660533E-04       4    7    1        -0.4094464779E-02      0.1089364689E-01

    ------------------------------------------------
       NWT REQUIRED            3 OUTER ITERATIONS 
       AND A TOTAL OF          5 INNER ITERATIONS.
    ------------------------------------------------

 OUTPUT CONTROL FOR STRESS PERIOD    7   TIME STEP   15
    PRINT BUDGET
    SAVE BUDGET
 UBDSV1 SAVING "         STORAGE" ON UNIT 102 AT TIME STEP    15, STRESS PERIOD   7
 UBDSV2 SAVING "   CONSTANT HEAD" ON UNIT 102 AT TIME STEP    15, STRESS PERIOD   7
 UBDSV1 SAVING "FLOW RIGHT FACE " ON UNIT 102 AT TIME STEP    15, STRESS PERIOD   7
 UBDSV1 SAVING "FLOW FRONT FACE " ON UNIT 102 AT TIME STEP    15, STRESS PERIOD   7

  HEAD DEP BOUNDS   PERIOD    7   STEP    15
 BOUNDARY      1   LAYER   1   ROW    13   COL     1   RATE   -0.291087    
 BOUNDARY      2   LAYER   1   ROW    14   COL     9   RATE    0.285898    



 STREAM LISTING     PERIOD      7   STEP       15

 LAYER ROW COL. STREAM  RCH.  FLOW INTO     FLOW TO   FLOW OUT OF   OVRLND.     DIRECT     STREAM       STREAM     STREAM     STREAM   STREAMBED  STREAMBED
                SEG.NO.  NO.  STRM. RCH.    AQUIFER    STRM. RCH.    RUNOFF     PRECIP       ET          HEAD       DEPTH      WIDTH   CONDCTNC.   GRADIENT

   1    1    1     1     1    9.9000E+01  4.7281E-01   9.8527E+01  0.000E+00  0.000E+00  0.000E+00  1.09484E+03  1.796E+00  2.191E+01  9.859E-02  1.599E+00
   1    2    2     1     2    9.8527E+01  7.3365E-01   9.7794E+01  0.000E+00  0.000E+00  0.000E+00  1.08985E+03  1.793E+00  2.187E+01  1.531E-01  1.598E+00
   1    3    3     1     3    9.7794E+01  6.2707E-01   9.7166E+01  0.000E+00  0.000E+00  0.000E+00  1.08421E+03  1.791E+00  2.181E+01  1.309E-01  1.597E+00
   1    3    4     1     4    9.7166E+01  5.7859E-01   9.6588E+01  0.000E+00  0.000E+00  0.000E+00  1.07920E+03  1.789E+00  2.177E+01  1.208E-01  1.596E+00
   1    4    5     2     1    9.4588E+01  4.4299E-01   9.4145E+01  0.000E+00  0.000E+00  0.000E+00  1.07461E+03  2.679E+00  1.200E+01  7.800E-02  1.893E+00
   1    5    6     2     2    9.4145E+01  3.4036E-01   9.3805E+01  0.000E+00  0.000E+00  0.000E+00  1.06918E+03  2.673E+00  1.200E+01  6.000E-02  1.891E+00
   1    6    6     2     3    9.3805E+01  3.4001E-01   9.3465E+01  0.000E+00  0.000E+00  0.000E+00  1.06446E+03  2.667E+00  1.200E+01  6.000E-02  1.889E+00
   1    7    6     2     4    9.3465E+01  3.3967E-01   9.3125E+01  0.000E+00  0.000E+00  0.000E+00  1.05974E+03  2.661E+00  1.200E+01  6.000E-02  1.887E+00
   1    8    6     2     5    9.3125E+01  3.3932E-01   9.2786E+01  0.000E+00  0.000E+00  0.000E+00  1.05501E+03  2.655E+00  1.200E+01  6.000E-02  1.885E+00
   1    3    5     3     1    2.0000E+00  2.8252E-01   1.7175E+00  0.000E+00  0.000E+00  0.000E+00  1.07555E+03  1.909E+00  9.636E+00  7.227E-02  1.955E+00
   1    3    6     3     2    1.7175E+00  2.4905E-01   1.4684E+00  0.000E+00  0.000E+00  0.000E+00  1.07264E+03  1.727E+00  8.909E+00  6.682E-02  1.864E+00
   1    3    7     3     3    1.4684E+00  1.9718E-01   1.2712E+00  0.000E+00  0.000E+00  0.000E+00  1.06987E+03  1.555E+00  8.218E+00  5.547E-02  1.777E+00
   1    4    8     3     4    1.2712E+00  2.2567E-01   1.0456E+00  0.000E+00  0.000E+00  0.000E+00  1.06682E+03  1.364E+00  7.455E+00  6.709E-02  1.682E+00
   1    5    8     3     5    1.0456E+00  1.5790E-01   8.8768E-01  0.000E+00  0.000E+00  0.000E+00  1.06362E+03  1.164E+00  6.655E+00  4.991E-02  1.582E+00
   1    6    8     3     6    8.8768E-01  5.5980E-02   8.3170E-01  0.000E+00  0.000E+00  0.000E+00  1.06158E+03  1.036E+00  6.145E+00  1.844E-02  1.518E+00
   1    5   10     4     1    1.0000E+01  9.0919E-02   9.9091E+00  0.000E+00  0.000E+00  0.000E+00  1.07836E+03  6.368E-01  1.000E+01  2.500E-02  1.212E+00
   1    5    9     4     2    9.9091E+00  1.8158E-01   9.7275E+00  0.000E+00  0.000E+00  0.000E+00  1.07154E+03  6.315E-01  1.000E+01  5.000E-02  1.211E+00
   1    6    8     4     3    9.7275E+00  1.2689E-01   9.6006E+00  0.000E+00  0.000E+00  0.000E+00  1.06381E+03  6.256E-01  1.000E+01  3.500E-02  1.209E+00
   1    6    8     5     1    1.0432E+01  2.2686E-01   1.0205E+01  0.000E+00  0.000E+00  0.000E+00  1.05868E+03  6.790E-01  1.542E+01  6.166E-02  1.226E+00
   1    7    7     5     2    1.0205E+01  2.7894E-01   9.9265E+00  0.000E+00  0.000E+00  0.000E+00  1.05417E+03  6.732E-01  1.519E+01  7.594E-02  1.224E+00
   1    8    7     5     3    9.9265E+00  1.9221E-01   9.7343E+00  0.000E+00  0.000E+00  0.000E+00  1.04992E+03  6.676E-01  1.497E+01  5.241E-02  1.223E+00
   1    8    6     5     4    9.7343E+00  1.3577E-01   9.5985E+00  0.000E+00  0.000E+00  0.000E+00  1.04691E+03  6.637E-01  1.482E+01  3.706E-02  1.221E+00
   1    9    6     6     1    8.2384E+01  3.2966E-01   8.2054E+01  0.000E+00  0.000E+00  0.000E+00  1.04522E+03  2.494E+00  1.200E+01  6.000E-02  1.831E+00
   1   10    7     6     2    8.2054E+01  3.2930E-01   8.1725E+01  0.000E+00  0.000E+00  0.000E+00  1.04067E+03  2.488E+00  1.200E+01  6.000E-02  1.829E+00
   1   11    7     6     3    8.1725E+01  3.2894E-01   8.1396E+01  0.000E+00  0.000E+00  0.000E+00  1.03612E+03  2.482E+00  1.200E+01  6.000E-02  1.827E+00
   1   12    7     6     4    8.1396E+01  3.2858E-01   8.1068E+01  0.000E+00  0.000E+00  0.000E+00  1.03157E+03  2.476E+00  1.200E+01  6.000E-02  1.825E+00
   1   13    7     6     5    8.1068E+01  3.0553E-02   8.1037E+01  0.000E+00  0.000E+00  0.000E+00  1.02838E+03  2.473E+00  1.200E+01  2.400E-02  4.243E-01
   1   14    9     7     1    1.5000E+02  1.3379E+00   1.4866E+02  0.000E+00  0.000E+00  0.000E+00  1.03987E+03  2.288E+00  5.529E+01  5.593E-01  7.973E-01
   1   13    8     7     2    1.4866E+02  1.8277E+00   1.4683E+02  0.000E+00  0.000E+00  0.000E+00  1.03478E+03  2.279E+00  5.526E+01  6.148E-01  9.910E-01
   1   13    7     7     3    1.4683E+02  1.4413E+00   1.4539E+02  0.000E+00  0.000E+00  0.000E+00  1.02969E+03  2.271E+00  5.522E+01  5.585E-01  8.603E-01
   1   13    6     8     1    2.2643E+02  1.1339E+00   2.2530E+02  0.000E+00  0.000E+00  0.000E+00  1.02516E+03  3.284E+00  4.762E+01  4.853E-01  7.789E-01
   1   13    5     8     2    2.2530E+02  3.3668E-01   2.2496E+02  0.000E+00  0.000E+00  0.000E+00  1.01891E+03  3.280E+00  4.756E+01  4.847E-01  2.316E-01
   1   13    4     8     3    2.2496E+02 -1.7744E+00   2.2673E+02  0.000E+00  0.000E+00  0.000E+00  1.01266E+03  3.284E+00  4.762E+01  4.852E+00 -1.219E-01
   1   13    3     8     4    2.2673E+02 -3.0117E+00   2.2975E+02  0.000E+00  0.000E+00  0.000E+00  1.00642E+03  3.297E+00  4.781E+01  4.872E+00 -2.061E-01
   1   13    2     8     5    2.2975E+02 -2.0763E+00   2.3182E+02  0.000E+00  0.000E+00  0.000E+00  1.00019E+03  3.311E+00  4.801E+01  4.892E+00 -1.415E-01
   1   13    1     8     6    2.3182E+02 -1.3691E+00   2.3319E+02  0.000E+00  0.000E+00  0.000E+00  9.95195E+02  3.320E+00  4.814E+01  2.943E+00 -1.551E-01
   1    6    8     9     1    2.0000E+01  0.0000E+00   2.0000E+01  0.000E+00  0.000E+00  0.000E+00  1.07932E+03  8.168E-01  4.000E+00  0.000E+00  1.272E+00



 UBDSV3 SAVING "           GW ET" ON UNIT  61 AT TIME STEP    15, STRESS PERIOD   7
 UBDSV3 SAVING "    UZF RECHARGE" ON UNIT  61 AT TIME STEP    15, STRESS PERIOD   7
 UBDSV3 SAVING " SURFACE LEAKAGE" ON UNIT  61 AT TIME STEP    15, STRESS PERIOD   7
 UBDSV3 SAVING "       HORT+DUNN" ON UNIT  61 AT TIME STEP    15, STRESS PERIOD   7
 UBDSV3 SAVING "  STORAGE CHANGE" ON UNIT  61 AT TIME STEP    15, STRESS PERIOD   7


UNSATURATED ZONE PACKAGE VOLUMETRIC BUDGET FOR  TIME STEP    15 STRESS PERIOD    7
  ------------------------------------------------------------------------------



     CUMULATIVE VOLUMES      L**3       RATES FOR THIS TIME STEP      L**3/T
     ------------------                 ------------------------

           IN:                                      IN:
           ---                                      ---
        INFILTRATION =    25507924.7109          INFILTRATION =           4.5364

          OUT:                                     OUT:
          ----                                     ----
              UZF ET =     4920009.8108                UZF ET =           2.2409
        UZF RECHARGE =       73224.0000          UZF RECHARGE =       0.0000E+00

            IN - OUT =    20514690.9001              IN - OUT =           2.2955

          STORAGE:                                 STORAGE:
          --------                                 --------
      STORAGE CHANGE =    20514253.8622        STORAGE CHANGE =           2.2955

 PERCENT DISCREPANCY IS DIFFERENCE BETWEEN IN-OUT MINUS CHANGE IN STORAGE
 DIVIDED BY THE AVERAGE OF IN AND OUT TIMES 100

 PERCENT DISCREPANCY =           0.00     PERCENT DISCREPANCY =           0.00






 

 AWU WELLS                PERIOD    7   STEP  15
 AWU WELL      1   LAYER   1   ROW     6   COL     4   RATE   -0.756069    
 AWU WELL      2   LAYER   1   ROW     6   COL     5   RATE   -0.756069    
 AWU WELL      3   LAYER   1   ROW     7   COL     4   RATE   -0.756069    
 AWU WELL      4   LAYER   1   ROW     7   COL     5   RATE   -0.756069    
 AWU WELL      5   LAYER   1   ROW     8   COL     4   RATE   -0.756069    
 AWU WELL      6   LAYER   1   ROW     8   COL     5   RATE   -0.756069    
 
 

 GW IRRIGATION            PERIOD    7   STEP  15
 AWU WELL      1   ROW     6   COL     4   RATE    0.756070    
 AWU WELL      2   ROW     6   COL     5   RATE    0.756070    
 AWU WELL      3   ROW     7   COL     4   RATE    0.756070    
 AWU WELL      4   ROW     7   COL     5   RATE    0.756070    
 AWU WELL      5   ROW     8   COL     4   RATE    0.756070    
 AWU WELL      6   ROW     8   COL     5   RATE    0.756070    
 
1
  VOLUMETRIC BUDGET FOR ENTIRE MODEL AT END OF TIME STEP   15, STRESS PERIOD   7
  ------------------------------------------------------------------------------

     CUMULATIVE VOLUMES      L**3       RATES FOR THIS TIME STEP      L**3/T
     ------------------                 ------------------------

           IN:                                      IN:
           ---                                      ---
    AWU WELLS            =    25434698.0000      AWU WELLS            =           4.5364
    DIVERSION SEGMENTS   =           0.0000      DIVERSION SEGMENTS   =           0.0000
    GW IRRIGATION        =           0.0000      GW IRRIGATION        =           0.0000
    SW IRRIGATION        =           0.0000      SW IRRIGATION        =           0.0000
    EFFICIENCY FACTOR GW =           0.0000      EFFICIENCY FACTOR GW =           0.0000
    EFFICIENCY FACTOR SW =           0.0000      EFFICIENCY FACTOR SW =           0.0000

                TOTAL IN =    25434698.0000                  TOTAL IN =           4.5364

          OUT:                                     OUT:
          ----                                     ----
    AWU WELLS            =           0.0000      AWU WELLS            =           0.0000
    DIVERSION SEGMENTS   =           0.0000      DIVERSION SEGMENTS   =           0.0000
    GW IRRIGATION        =    25434698.0000      GW IRRIGATION        =           4.5364
    SW IRRIGATION        =           0.0000      SW IRRIGATION        =           0.0000
    EFFICIENCY FACTOR GW =           0.0000      EFFICIENCY FACTOR GW =           0.0000
    EFFICIENCY FACTOR SW =           0.0000      EFFICIENCY FACTOR SW =           0.0000

               TOTAL OUT =    25434698.0000                 TOTAL OUT =           4.5364

                IN - OUT =           0.0000                  IN - OUT =           0.0000

     PERCENT DISCREPANCY =           0.00         PERCENT DISCREPANCY =           0.00



1
  VOLUMETRIC BUDGET FOR ENTIRE MODEL AT END OF TIME STEP   15, STRESS PERIOD   7
  ------------------------------------------------------------------------------

     CUMULATIVE VOLUMES      L**3       RATES FOR THIS TIME STEP      L**3/T
     ------------------                 ------------------------

           IN:                                      IN:
           ---                                      ---
             STORAGE     =    34341672.0000               STORAGE     =           4.0300
       CONSTANT HEAD     =           0.0000         CONSTANT HEAD     =           0.0000
     HEAD DEP BOUNDS     =     4156291.7500       HEAD DEP BOUNDS     =           0.2859
      STREAM LEAKAGE     =   176543536.0000        STREAM LEAKAGE     =          14.0403
        UZF RECHARGE     =       73223.9531          UZF RECHARGE     =           0.0000
               GW ET     =           0.0000                 GW ET     =           0.0000
     SURFACE LEAKAGE     =           0.0000       SURFACE LEAKAGE     =           0.0000
    AWU WELLS            =           0.0000      AWU WELLS            =           0.0000

                TOTAL IN =   215114720.0000                  TOTAL IN =          18.3563

          OUT:                                     OUT:
          ----                                     ----
             STORAGE     =    29999140.0000               STORAGE     =           2.1493
       CONSTANT HEAD     =           0.0000         CONSTANT HEAD     =           0.0000
     HEAD DEP BOUNDS     =     4217225.0000       HEAD DEP BOUNDS     =           0.2911
      STREAM LEAKAGE     =   147066128.0000        STREAM LEAKAGE     =           8.2315
        UZF RECHARGE     =           0.0000          UZF RECHARGE     =           0.0000
               GW ET     =     8402096.0000                 GW ET     =           3.1466
     SURFACE LEAKAGE     =           0.0000       SURFACE LEAKAGE     =           0.0000
    AWU WELLS            =    25434698.0000      AWU WELLS            =           4.5364

               TOTAL OUT =   215119296.0000                 TOTAL OUT =          18.3549

                IN - OUT =       -4576.0000                  IN - OUT =       1.3561E-03

     PERCENT DISCREPANCY =          -0.00         PERCENT DISCREPANCY =           0.01






         TIME SUMMARY AT END OF TIME STEP   15 IN STRESS PERIOD    7
                    SECONDS     MINUTES      HOURS       DAYS        YEARS
                    -----------------------------------------------------------
   TIME STEP LENGTH  87600.      1460.0      24.333      1.0139     2.77588E-03
 STRESS PERIOD TIME 1.31400E+06  21900.      365.00      15.208     4.16381E-02
         TOTAL TIME 1.45404E+07 2.42340E+05  4039.0      168.29     0.46076    
1
 
 SOLVING FOR HEAD 
                                                   Max.-Head-Change                         Max.-Flux-Residual
  Residual-Control   Outer-Iter.   Inner-Iter.     Column Row Layer    Maximum-Head-Change  Column Row Layer    Maximum-Flux-Residual          L2-NORM 
          0                 1           2             4    7     1      -0.8481812200E-02       4    7    1        -0.4451466193E+00      0.1188622090E+01
          0                 2           2             4    7     1       0.8404691868E-03       4    7    1         0.4451457660E-01      0.1188537161E+00
          0                 3           1             4    7     1      -0.7495522425E-04       4    7    1        -0.4006313244E-02      0.1069599133E-01

    ------------------------------------------------
       NWT REQUIRED            3 OUTER ITERATIONS 
       AND A TOTAL OF          5 INNER ITERATIONS.
    ------------------------------------------------

 NO OUTPUT CONTROL FOR STRESS PERIOD    7   TIME STEP   16
 
 SOLVING FOR HEAD 
                                                   Max.-Head-Change                         Max.-Flux-Residual
  Residual-Control   Outer-Iter.   Inner-Iter.     Column Row Layer    Maximum-Head-Change  Column Row Layer    Maximum-Flux-Residual          L2-NORM 
          0                 1           2             4    7     1      -0.8300973441E-02       4    7    1        -0.4357180360E+00      0.1182563448E+01
          0                 2           2             4    7     1       0.8225497429E-03       4    7    1         0.4357172042E-01      0.1181582776E+00
          0                 3           1             4    7     1      -0.7335712118E-04       4    7    1        -0.3921456124E-02      0.1062512846E-01

    ------------------------------------------------
       NWT REQUIRED            3 OUTER ITERATIONS 
       AND A TOTAL OF          5 INNER ITERATIONS.
    ------------------------------------------------

 NO OUTPUT CONTROL FOR STRESS PERIOD    7   TIME STEP   17
 
 SOLVING FOR HEAD 
                                                   Max.-Head-Change                         Max.-Flux-Residual
  Residual-Control   Outer-Iter.   Inner-Iter.     Column Row Layer    Maximum-Head-Change  Column Row Layer    Maximum-Flux-Residual          L2-NORM 
          0                 1           2             2   13     1       0.8782023272E-02       2   13    1         0.5006131158E+00      0.1420949305E+01
          0                 2           2             2   13     1      -0.8317675975E-03       2   13    1        -0.4784707227E-01      0.1405013312E+00
          0                 3           1             4    7     1      -0.7182147317E-04       2   13    1         0.4093620308E-02      0.1249628748E-01

    ------------------------------------------------
       NWT REQUIRED            3 OUTER ITERATIONS 
       AND A TOTAL OF          5 INNER ITERATIONS.
    ------------------------------------------------

 NO OUTPUT CONTROL FOR STRESS PERIOD    7   TIME STEP   18
 
 SOLVING FOR HEAD 
                                                   Max.-Head-Change                         Max.-Flux-Residual
  Residual-Control   Outer-Iter.   Inner-Iter.     Column Row Layer    Maximum-Head-Change  Column Row Layer    Maximum-Flux-Residual          L2-NORM 
          0                 1           2             2   13     1       0.8034556945E-02       2   13    1         0.4579398762E+00      0.1357140460E+01
          0                 2           2             4    7     1       0.7791041968E-03       2   13    1        -0.4378899469E-01      0.1343248632E+00
          0                 3           1             4    7     1      -0.6948253444E-04       2   13    1         0.3747724494E-02      0.1195907693E-01

    ------------------------------------------------
       NWT REQUIRED            3 OUTER ITERATIONS 
       AND A TOTAL OF          5 INNER ITERATIONS.
    ------------------------------------------------

 NO OUTPUT CONTROL FOR STRESS PERIOD    7   TIME STEP   19
 
 SOLVING FOR HEAD 
                                                   Max.-Head-Change                         Max.-Flux-Residual
  Residual-Control   Outer-Iter.   Inner-Iter.     Column Row Layer    Maximum-Head-Change  Column Row Layer    Maximum-Flux-Residual          L2-NORM 
          0                 1           2             4    7     1      -0.7474391369E-02       2   13    1         0.4189425105E+00      0.1289453895E+01
          0                 2           2             4    7     1       0.7406431477E-03       2   13    1        -0.4007699444E-01      0.1277250158E+00
          0                 3           1             4    7     1      -0.6605247831E-04       4    7    1        -0.3532920203E-02      0.1138038450E-01

    ------------------------------------------------
       NWT REQUIRED            3 OUTER ITERATIONS 
       AND A TOTAL OF          5 INNER ITERATIONS.
    ------------------------------------------------

 NO OUTPUT CONTROL FOR STRESS PERIOD    7   TIME STEP   20
 
 SOLVING FOR HEAD 
                                                   Max.-Head-Change                         Max.-Flux-Residual
  Residual-Control   Outer-Iter.   Inner-Iter.     Column Row Layer    Maximum-Head-Change  Column Row Layer    Maximum-Flux-Residual          L2-NORM 
          0                 1           2             2    2     1       0.7268763813E-02       2   13    1         0.3833093504E+00      0.1228372683E+01
          0                 2           2             2    2     1      -0.7202702366E-03       2    2    1        -0.3792951240E-01      0.1217683363E+00
          0                 3           1             2    2     1       0.6423554040E-04       2    2    1         0.3413655397E-02      0.1085958231E-01

    ------------------------------------------------
       NWT REQUIRED            3 OUTER ITERATIONS 
       AND A TOTAL OF          5 INNER ITERATIONS.
    ------------------------------------------------

 NO OUTPUT CONTROL FOR STRESS PERIOD    7   TIME STEP   21
 
 SOLVING FOR HEAD 
                                                   Max.-Head-Change                         Max.-Flux-Residual
  Residual-Control   Outer-Iter.   Inner-Iter.     Column Row Layer    Maximum-Head-Change  Column Row Layer    Maximum-Flux-Residual          L2-NORM 
          0                 1           2             2    2     1       0.7233135807E-02       2    2    1         0.3774207237E+00      0.1172988475E+01
          0                 2           2             2    2     1      -0.7167397988E-03       2    2    1        -0.3774218824E-01      0.1163625775E+00
          0                 3           1             2    2     1       0.6392068721E-04       2    2    1         0.3396796231E-02      0.1038476981E-01

    ------------------------------------------------
       NWT REQUIRED            3 OUTER ITERATIONS 
       AND A TOTAL OF          5 INNER ITERATIONS.
    ------------------------------------------------

 NO OUTPUT CONTROL FOR STRESS PERIOD    7   TIME STEP   22
 
 SOLVING FOR HEAD 
                                                   Max.-Head-Change                         Max.-Flux-Residual
  Residual-Control   Outer-Iter.   Inner-Iter.     Column Row Layer    Maximum-Head-Change  Column Row Layer    Maximum-Flux-Residual          L2-NORM 
          0                 1           2             2    2     1       0.7197885502E-02       2    2    1         0.3755674710E+00      0.1122870789E+01
          0                 2           2             2    2     1      -0.7132467880E-03       2    2    1        -0.3755686130E-01      0.1114680378E+00
          0                 3           1             2    2     1       0.6360917178E-04       2    2    1         0.3380116811E-02      0.9955576833E-02

    ------------------------------------------------
       NWT REQUIRED            3 OUTER ITERATIONS 
       AND A TOTAL OF          5 INNER ITERATIONS.
    ------------------------------------------------

 NO OUTPUT CONTROL FOR STRESS PERIOD    7   TIME STEP   23
 
 SOLVING FOR HEAD 
                                                   Max.-Head-Change                         Max.-Flux-Residual
  Residual-Control   Outer-Iter.   Inner-Iter.     Column Row Layer    Maximum-Head-Change  Column Row Layer    Maximum-Flux-Residual          L2-NORM 
          0                 1           2             2    2     1       0.7163006585E-02       2    2    1         0.3737338162E+00      0.9859475457E+00
          0                 2           2             2    2     1      -0.7097905795E-03       2    2    1        -0.3737349420E-01      0.9842790730E-01
          0                 3           1             2    2     1       0.6330093836E-04       2    2    1         0.3363613790E-02      0.8842653978E-02

    ------------------------------------------------
       NWT REQUIRED            3 OUTER ITERATIONS 
       AND A TOTAL OF          5 INNER ITERATIONS.
    ------------------------------------------------

 NO OUTPUT CONTROL FOR STRESS PERIOD    7   TIME STEP   24
 
 SOLVING FOR HEAD 
                                                   Max.-Head-Change                         Max.-Flux-Residual
  Residual-Control   Outer-Iter.   Inner-Iter.     Column Row Layer    Maximum-Head-Change  Column Row Layer    Maximum-Flux-Residual          L2-NORM 
          0                 1           2             2    2     1       0.7128667740E-02       2    2    1         0.3719285788E+00      0.9878913573E+00
          0                 2           2             2    2     1      -0.7063878878E-03       2    2    1        -0.3719296886E-01      0.9847262593E-01
          0                 3           1             2    2     1       0.6299747792E-04       2    2    1         0.3347366528E-02      0.8833767989E-02

    ------------------------------------------------
       NWT REQUIRED            3 OUTER ITERATIONS 
       AND A TOTAL OF          5 INNER ITERATIONS.
    ------------------------------------------------

 NO OUTPUT CONTROL FOR STRESS PERIOD    7   TIME STEP   25
 
 SOLVING FOR HEAD 
                                                   Max.-Head-Change                         Max.-Flux-Residual
  Residual-Control   Outer-Iter.   Inner-Iter.     Column Row Layer    Maximum-Head-Change  Column Row Layer    Maximum-Flux-Residual          L2-NORM 
          0                 1           2             2    2     1       0.7094686176E-02       2    2    1         0.3701422178E+00      0.9547555836E+00
          0                 2           2             2    2     1      -0.7030205996E-03       2    2    1        -0.3701433120E-01      0.9520309419E-01
          0                 3           1             2    2     1       0.6269717473E-04       2    2    1         0.3331289153E-02      0.8543046936E-02

    ------------------------------------------------
       NWT REQUIRED            3 OUTER ITERATIONS 
       AND A TOTAL OF          5 INNER ITERATIONS.
    ------------------------------------------------

 NO OUTPUT CONTROL FOR STRESS PERIOD    7   TIME STEP   26
 
 SOLVING FOR HEAD 
                                                   Max.-Head-Change                         Max.-Flux-Residual
  Residual-Control   Outer-Iter.   Inner-Iter.     Column Row Layer    Maximum-Head-Change  Column Row Layer    Maximum-Flux-Residual          L2-NORM 
          0                 1           2             2    2     1       0.7061143029E-02       2    2    1         0.3683789691E+00      0.9248129256E+00
          0                 2           2             2    2     1      -0.6996967550E-03       2    2    1        -0.3683800481E-01      0.9224809893E-01
          0                 3           1             2    2     1       0.6240074567E-04       2    2    1         0.3315419782E-02      0.8280597193E-02

    ------------------------------------------------
       NWT REQUIRED            3 OUTER ITERATIONS 
       AND A TOTAL OF          5 INNER ITERATIONS.
    ------------------------------------------------

 NO OUTPUT CONTROL FOR STRESS PERIOD    7   TIME STEP   27
 
 SOLVING FOR HEAD 
                                                   Max.-Head-Change                         Max.-Flux-Residual
  Residual-Control   Outer-Iter.   Inner-Iter.     Column Row Layer    Maximum-Head-Change  Column Row Layer    Maximum-Flux-Residual          L2-NORM 
          0                 1           2             2    2     1       0.7027943860E-02       2    2    1         0.3666338950E+00      0.8977142005E+00
          0                 2           2             2    2     1      -0.6964069960E-03       2    2    1        -0.3666349590E-01      0.8957145642E-01
          0                 3           1             2    2     1       0.6210735672E-04       2    2    1         0.3299713990E-02      0.8042929894E-02

    ------------------------------------------------
       NWT REQUIRED            3 OUTER ITERATIONS 
       AND A TOTAL OF          5 INNER ITERATIONS.
    ------------------------------------------------

 NO OUTPUT CONTROL FOR STRESS PERIOD    7   TIME STEP   28
 
 SOLVING FOR HEAD 
                                                   Max.-Head-Change                         Max.-Flux-Residual
  Residual-Control   Outer-Iter.   Inner-Iter.     Column Row Layer    Maximum-Head-Change  Column Row Layer    Maximum-Flux-Residual          L2-NORM 
          0                 1           2             2    2     1       0.6995257843E-02       2    2    1         0.3649158178E+00      0.8729642093E+00
          0                 2           2             2    2     1      -0.6931680863E-03       2    2    1        -0.3649168672E-01      0.8712561284E-01
          0                 3           1             2    2     1       0.6181850252E-04       2    2    1         0.3284251180E-02      0.7825784332E-02

    ------------------------------------------------
       NWT REQUIRED            3 OUTER ITERATIONS 
       AND A TOTAL OF          5 INNER ITERATIONS.
    ------------------------------------------------

 NO OUTPUT CONTROL FOR STRESS PERIOD    7   TIME STEP   29
 
 SOLVING FOR HEAD 
                                                   Max.-Head-Change                         Max.-Flux-Residual
  Residual-Control   Outer-Iter.   Inner-Iter.     Column Row Layer    Maximum-Head-Change  Column Row Layer    Maximum-Flux-Residual          L2-NORM 
          0                 1           2             4   13     1      -0.1095750043E-01       4   13    1        -0.6329158603E+00      0.1306055990E+01
          0                 2           2             4   13     1       0.1074844466E-02       4   13    1         0.6266208926E-01      0.1281081812E+00
          0                 3           1             4   13     1      -0.9478693680E-04       4   13    1        -0.5577463145E-02      0.1129318894E-01

    ------------------------------------------------
       NWT REQUIRED            3 OUTER ITERATIONS 
       AND A TOTAL OF          5 INNER ITERATIONS.
    ------------------------------------------------

 NO OUTPUT CONTROL FOR STRESS PERIOD    7   TIME STEP   30



 STREAM LISTING     PERIOD      7   STEP       30

 LAYER ROW COL. STREAM  RCH.  FLOW INTO     FLOW TO   FLOW OUT OF   OVRLND.     DIRECT     STREAM       STREAM     STREAM     STREAM   STREAMBED  STREAMBED
                SEG.NO.  NO.  STRM. RCH.    AQUIFER    STRM. RCH.    RUNOFF     PRECIP       ET          HEAD       DEPTH      WIDTH   CONDCTNC.   GRADIENT

   1    1    1     1     1    7.6644E+01  4.2624E-01   7.6218E+01  0.000E+00  0.000E+00  0.000E+00  1.09475E+03  1.706E+00  2.013E+01  9.057E-02  1.569E+00
   1    2    2     1     2    7.6218E+01  6.6113E-01   7.5556E+01  0.000E+00  0.000E+00  0.000E+00  1.08976E+03  1.704E+00  2.008E+01  1.405E-01  1.568E+00
   1    3    3     1     3    7.5556E+01  5.6483E-01   7.4992E+01  0.000E+00  0.000E+00  0.000E+00  1.08412E+03  1.701E+00  2.002E+01  1.201E-01  1.567E+00
   1    3    4     1     4    7.4992E+01  5.2063E-01   7.4471E+01  0.000E+00  0.000E+00  0.000E+00  1.07910E+03  1.697E+00  1.997E+01  1.108E-01  1.566E+00
   1    4    5     2     1    7.2471E+01  4.1207E-01   7.2059E+01  0.000E+00  0.000E+00  0.000E+00  1.07422E+03  2.283E+00  1.200E+01  7.800E-02  1.761E+00
   1    5    6     2     2    7.2059E+01  3.1656E-01   7.1742E+01  0.000E+00  0.000E+00  0.000E+00  1.06879E+03  2.276E+00  1.200E+01  6.000E-02  1.759E+00
   1    6    6     2     3    7.1742E+01  3.1620E-01   7.1426E+01  0.000E+00  0.000E+00  0.000E+00  1.06406E+03  2.270E+00  1.200E+01  6.000E-02  1.757E+00
   1    7    6     2     4    7.1426E+01  3.1584E-01   7.1110E+01  0.000E+00  0.000E+00  0.000E+00  1.05934E+03  2.264E+00  1.200E+01  6.000E-02  1.755E+00
   1    8    6     2     5    7.1110E+01  3.1548E-01   7.0795E+01  0.000E+00  0.000E+00  0.000E+00  1.05462E+03  2.258E+00  1.200E+01  6.000E-02  1.753E+00
   1    3    5     3     1    2.0000E+00  2.8252E-01   1.7175E+00  0.000E+00  0.000E+00  0.000E+00  1.07555E+03  1.909E+00  9.636E+00  7.227E-02  1.955E+00
   1    3    6     3     2    1.7175E+00  2.4905E-01   1.4684E+00  0.000E+00  0.000E+00  0.000E+00  1.07264E+03  1.727E+00  8.909E+00  6.682E-02  1.864E+00
   1    3    7     3     3    1.4684E+00  1.9718E-01   1.2712E+00  0.000E+00  0.000E+00  0.000E+00  1.06987E+03  1.555E+00  8.218E+00  5.547E-02  1.777E+00
   1    4    8     3     4    1.2712E+00  2.2567E-01   1.0456E+00  0.000E+00  0.000E+00  0.000E+00  1.06682E+03  1.364E+00  7.455E+00  6.709E-02  1.682E+00
   1    5    8     3     5    1.0456E+00  1.5790E-01   8.8768E-01  0.000E+00  0.000E+00  0.000E+00  1.06362E+03  1.164E+00  6.655E+00  4.991E-02  1.582E+00
   1    6    8     3     6    8.8768E-01  5.5980E-02   8.3170E-01  0.000E+00  0.000E+00  0.000E+00  1.06158E+03  1.036E+00  6.145E+00  1.844E-02  1.518E+00
   1    5   10     4     1    1.0000E+01  9.0919E-02   9.9091E+00  0.000E+00  0.000E+00  0.000E+00  1.07836E+03  6.368E-01  1.000E+01  2.500E-02  1.212E+00
   1    5    9     4     2    9.9091E+00  1.8158E-01   9.7275E+00  0.000E+00  0.000E+00  0.000E+00  1.07154E+03  6.315E-01  1.000E+01  5.000E-02  1.211E+00
   1    6    8     4     3    9.7275E+00  1.2689E-01   9.6006E+00  0.000E+00  0.000E+00  0.000E+00  1.06381E+03  6.256E-01  1.000E+01  3.500E-02  1.209E+00
   1    6    8     5     1    1.0432E+01  2.2686E-01   1.0205E+01  0.000E+00  0.000E+00  0.000E+00  1.05868E+03  6.790E-01  1.542E+01  6.166E-02  1.226E+00
   1    7    7     5     2    1.0205E+01  2.7894E-01   9.9265E+00  0.000E+00  0.000E+00  0.000E+00  1.05417E+03  6.732E-01  1.519E+01  7.594E-02  1.224E+00
   1    8    7     5     3    9.9265E+00  1.9221E-01   9.7343E+00  0.000E+00  0.000E+00  0.000E+00  1.04992E+03  6.676E-01  1.497E+01  5.241E-02  1.223E+00
   1    8    6     5     4    9.7343E+00  1.3577E-01   9.5985E+00  0.000E+00  0.000E+00  0.000E+00  1.04691E+03  6.637E-01  1.482E+01  3.706E-02  1.221E+00
   1    9    6     6     1    6.0393E+01  3.0418E-01   6.0089E+01  0.000E+00  0.000E+00  0.000E+00  1.04480E+03  2.070E+00  1.200E+01  6.000E-02  1.690E+00
   1   10    7     6     2    6.0089E+01  3.0381E-01   5.9785E+01  0.000E+00  0.000E+00  0.000E+00  1.04025E+03  2.063E+00  1.200E+01  6.000E-02  1.688E+00
   1   11    7     6     3    5.9785E+01  3.0343E-01   5.9482E+01  0.000E+00  0.000E+00  0.000E+00  1.03569E+03  2.057E+00  1.200E+01  6.000E-02  1.686E+00
   1   12    7     6     4    5.9482E+01  3.0305E-01   5.9179E+01  0.000E+00  0.000E+00  0.000E+00  1.03114E+03  2.051E+00  1.200E+01  6.000E-02  1.684E+00
   1   13    7     6     5    5.9179E+01  2.0278E-02   5.9159E+01  0.000E+00  0.000E+00  0.000E+00  1.02796E+03  2.048E+00  1.200E+01  2.400E-02  2.816E-01
   1   14    9     7     1    1.5000E+02  1.3379E+00   1.4866E+02  0.000E+00  0.000E+00  0.000E+00  1.03987E+03  2.288E+00  5.529E+01  5.593E-01  7.973E-01
   1   13    8     7     2    1.4866E+02  1.8272E+00   1.4683E+02  0.000E+00  0.000E+00  0.000E+00  1.03478E+03  2.279E+00  5.526E+01  6.148E-01  9.907E-01
   1   13    7     7     3    1.4683E+02  1.4398E+00   1.4540E+02  0.000E+00  0.000E+00  0.000E+00  1.02969E+03  2.271E+00  5.522E+01  5.585E-01  8.594E-01
   1   13    6     8     1    2.0455E+02  1.0321E+00   2.0352E+02  0.000E+00  0.000E+00  0.000E+00  1.02504E+03  3.161E+00  4.584E+01  4.671E-01  7.365E-01
   1   13    5     8     2    2.0352E+02  2.7221E-01   2.0325E+02  0.000E+00  0.000E+00  0.000E+00  1.01878E+03  3.158E+00  4.578E+01  4.666E-01  1.945E-01
   1   13    4     8     3    2.0325E+02 -2.3140E+00   2.0556E+02  0.000E+00  0.000E+00  0.000E+00  1.01254E+03  3.163E+00  4.587E+01  4.674E+00 -1.650E-01
   1   13    3     8     4    2.0556E+02 -3.5286E+00   2.0909E+02  0.000E+00  0.000E+00  0.000E+00  1.00631E+03  3.180E+00  4.612E+01  4.699E+00 -2.503E-01
   1   13    2     8     5    2.0909E+02 -2.6637E+00   2.1176E+02  0.000E+00  0.000E+00  0.000E+00  1.00007E+03  3.198E+00  4.637E+01  4.725E+00 -1.879E-01
   1   13    1     8     6    2.1176E+02 -1.6906E+00   2.1345E+02  0.000E+00  0.000E+00  0.000E+00  9.95085E+02  3.210E+00  4.655E+01  2.846E+00 -1.980E-01
   1    6    8     9     1    2.0000E+01  0.0000E+00   2.0000E+01  0.000E+00  0.000E+00  0.000E+00  1.07932E+03  8.168E-01  4.000E+00  0.000E+00  1.272E+00





UNSATURATED ZONE PACKAGE VOLUMETRIC BUDGET FOR  TIME STEP    30 STRESS PERIOD    7
  ------------------------------------------------------------------------------



     CUMULATIVE VOLUMES      L**3       RATES FOR THIS TIME STEP      L**3/T
     ------------------                 ------------------------

           IN:                                      IN:
           ---                                      ---
        INFILTRATION =    30792477.8906          INFILTRATION =           3.4942

          OUT:                                     OUT:
          ----                                     ----
              UZF ET =     8047291.0452                UZF ET =           2.5331
        UZF RECHARGE =       73224.0000          UZF RECHARGE =       0.0000E+00

            IN - OUT =    22671962.8455              IN - OUT =           0.9611

          STORAGE:                                 STORAGE:
          --------                                 --------
      STORAGE CHANGE =    22671525.8092        STORAGE CHANGE =           0.9611

 PERCENT DISCREPANCY IS DIFFERENCE BETWEEN IN-OUT MINUS CHANGE IN STORAGE
 DIVIDED BY THE AVERAGE OF IN AND OUT TIMES 100

 PERCENT DISCREPANCY =           0.00     PERCENT DISCREPANCY =          -0.00






1
  VOLUMETRIC BUDGET FOR ENTIRE MODEL AT END OF TIME STEP   30, STRESS PERIOD   7
  ------------------------------------------------------------------------------

     CUMULATIVE VOLUMES      L**3       RATES FOR THIS TIME STEP      L**3/T
     ------------------                 ------------------------

           IN:                                      IN:
           ---                                      ---
    AWU WELLS            =    30719252.0000      AWU WELLS            =           3.4942
    DIVERSION SEGMENTS   =           0.0000      DIVERSION SEGMENTS   =           0.0000
    GW IRRIGATION        =           0.0000      GW IRRIGATION        =           0.0000
    SW IRRIGATION        =           0.0000      SW IRRIGATION        =           0.0000
    EFFICIENCY FACTOR GW =           0.0000      EFFICIENCY FACTOR GW =           0.0000
    EFFICIENCY FACTOR SW =           0.0000      EFFICIENCY FACTOR SW =           0.0000

                TOTAL IN =    30719252.0000                  TOTAL IN =           3.4942

          OUT:                                     OUT:
          ----                                     ----
    AWU WELLS            =           0.0000      AWU WELLS            =           0.0000
    DIVERSION SEGMENTS   =           0.0000      DIVERSION SEGMENTS   =           0.0000
    GW IRRIGATION        =    30719252.0000      GW IRRIGATION        =           3.4942
    SW IRRIGATION        =           0.0000      SW IRRIGATION        =           0.0000
    EFFICIENCY FACTOR GW =           0.0000      EFFICIENCY FACTOR GW =           0.0000
    EFFICIENCY FACTOR SW =           0.0000      EFFICIENCY FACTOR SW =           0.0000

               TOTAL OUT =    30719252.0000                 TOTAL OUT =           3.4942

                IN - OUT =           0.0000                  IN - OUT =           0.0000

     PERCENT DISCREPANCY =           0.00         PERCENT DISCREPANCY =           0.00



1
  VOLUMETRIC BUDGET FOR ENTIRE MODEL AT END OF TIME STEP   30, STRESS PERIOD   7
  ------------------------------------------------------------------------------

     CUMULATIVE VOLUMES      L**3       RATES FOR THIS TIME STEP      L**3/T
     ------------------                 ------------------------

           IN:                                      IN:
           ---                                      ---
             STORAGE     =    39165640.0000               STORAGE     =           5.0154
       CONSTANT HEAD     =           0.0000         CONSTANT HEAD     =           0.0000
     HEAD DEP BOUNDS     =     4531959.5000       HEAD DEP BOUNDS     =           0.2859
      STREAM LEAKAGE     =   195081376.0000        STREAM LEAKAGE     =          13.3944
        UZF RECHARGE     =       73223.9531          UZF RECHARGE     =           0.0000
               GW ET     =           0.0000                 GW ET     =           0.0000
     SURFACE LEAKAGE     =           0.0000       SURFACE LEAKAGE     =           0.0000
    AWU WELLS            =           0.0000      AWU WELLS            =           0.0000

                TOTAL IN =   238852192.0000                  TOTAL IN =          18.6957

          OUT:                                     OUT:
          ----                                     ----
             STORAGE     =    33373216.0000               STORAGE     =           1.5539
       CONSTANT HEAD     =           0.0000         CONSTANT HEAD     =           0.0000
     HEAD DEP BOUNDS     =     4600639.0000       HEAD DEP BOUNDS     =           0.2918
      STREAM LEAKAGE     =   157607936.0000        STREAM LEAKAGE     =          10.1968
        UZF RECHARGE     =           0.0000          UZF RECHARGE     =           0.0000
               GW ET     =    12554690.0000                 GW ET     =           3.1565
     SURFACE LEAKAGE     =           0.0000       SURFACE LEAKAGE     =           0.0000
    AWU WELLS            =    30719252.0000      AWU WELLS            =           3.4942

               TOTAL OUT =   238855728.0000                 TOTAL OUT =          18.6932

                IN - OUT =       -3536.0000                  IN - OUT =       2.5024E-03

     PERCENT DISCREPANCY =          -0.00         PERCENT DISCREPANCY =           0.01






         TIME SUMMARY AT END OF TIME STEP   30 IN STRESS PERIOD    7
                    SECONDS     MINUTES      HOURS       DAYS        YEARS
                    -----------------------------------------------------------
   TIME STEP LENGTH  87600.      1460.0      24.333      1.0139     2.77588E-03
 STRESS PERIOD TIME 2.62800E+06  43800.      730.00      30.417     8.32763E-02
         TOTAL TIME 1.58544E+07 2.64240E+05  4404.0      183.50     0.50240    
1
1
                            STRESS PERIOD NO.    8, LENGTH =   2628000.    
                            -----------------------------------------------

                              NUMBER OF TIME STEPS =    30

                               MULTIPLIER FOR DELT =     1.000

                            INITIAL TIME STEP SIZE =   87600.00    

 REUSING NON-PARAMETER GHB CELLS FROM LAST STRESS PERIOD

      2 GHB CELLS

 REUSING STREAM SEGMENT DATA FROM LAST STRESS PERIOD



            AREAL INFILTRATION RATE
 READING ON UNIT   19 WITH FORMAT: (10F4.0)            

            1           2           3           4           5           6           7           8           9          10
 ........................................................................................................................
   1    0.000       0.000       0.000       0.000       0.000       0.000       0.000       0.000       0.000       0.000    
   2    0.000       0.000       0.000       0.000       0.000       0.000       0.000       0.000       0.000       0.000    
   3    0.000       0.000       0.000       0.000       0.000       0.000       0.000       0.000       0.000       0.000    
   4    0.000       0.000       0.000       0.000       0.000       0.000       0.000       0.000       0.000       0.000    
   5    0.000       0.000       0.000       0.000       0.000       0.000       0.000       0.000       0.000       0.000    
   6    0.000       0.000       0.000       0.000       0.000       0.000       0.000       0.000       0.000       0.000    
   7    0.000       0.000       0.000       0.000       0.000       0.000       0.000       0.000       0.000       0.000    
   8    0.000       0.000       0.000       0.000       0.000       0.000       0.000       0.000       0.000       0.000    
   9    0.000       0.000       0.000       0.000       0.000       0.000       0.000       0.000       0.000       0.000    
  10    0.000       0.000       0.000       0.000       0.000       0.000       0.000       0.000       0.000       0.000    
  11    0.000       0.000       0.000       0.000       0.000       0.000       0.000       0.000       0.000       0.000    
  12    0.000       0.000       0.000       0.000       0.000       0.000       0.000       0.000       0.000       0.000    
  13    0.000       0.000       0.000       0.000       0.000       0.000       0.000       0.000       0.000       0.000    
  14    0.000       0.000       0.000       0.000       0.000       0.000       0.000       0.000       0.000       0.000    
  15    0.000       0.000       0.000       0.000       0.000       0.000       0.000       0.000       0.000       0.000    

                  ET RATE =  8.000000E-08

 USING ET EXTINCTION DEPTH FROM PREVIOUS STRESS PERIOD. CURRENT PERIOD IS:       8

 USING EXTINCTION WATER CONTENT FROM PREVIOUS STRESS PERIOD. CURRENT PERIOD IS:       8

 PROCESSING AWU STRESS PERIOD DATA

 READING AWU STRESS PERIOD DATA

 READING IRRIGATION WELL

 END PROCESSING AWU STRESS PERIOD DATA OPTIONS
 
 SOLVING FOR HEAD 
                                                   Max.-Head-Change                         Max.-Flux-Residual
  Residual-Control   Outer-Iter.   Inner-Iter.     Column Row Layer    Maximum-Head-Change  Column Row Layer    Maximum-Flux-Residual          L2-NORM 
          0                 1           2             4   13     1      -0.3101678317E-01       4   13    1        -0.1786666186E+01      0.4286767742E+01
          0                 2           2             4   13     1       0.3039224195E-02       4   13    1         0.1766862553E+00      0.4223577550E+00
          0                 3           2             4   13     1      -0.2677205584E-03       4   13    1        -0.1570798156E-01      0.3741818651E-01
          0                 4           1             4   13     1       0.2096126687E-04       4   13    1         0.1241235699E-02      0.2947501819E-02

    ------------------------------------------------
       NWT REQUIRED            4 OUTER ITERATIONS 
       AND A TOTAL OF          7 INNER ITERATIONS.
    ------------------------------------------------

 OUTPUT CONTROL FOR STRESS PERIOD    8   TIME STEP    1
    PRINT BUDGET
    SAVE BUDGET
 UBDSV1 SAVING "         STORAGE" ON UNIT 102 AT TIME STEP     1, STRESS PERIOD   8
 UBDSV2 SAVING "   CONSTANT HEAD" ON UNIT 102 AT TIME STEP     1, STRESS PERIOD   8
 UBDSV1 SAVING "FLOW RIGHT FACE " ON UNIT 102 AT TIME STEP     1, STRESS PERIOD   8
 UBDSV1 SAVING "FLOW FRONT FACE " ON UNIT 102 AT TIME STEP     1, STRESS PERIOD   8

  HEAD DEP BOUNDS   PERIOD    8   STEP     1
 BOUNDARY      1   LAYER   1   ROW    13   COL     1   RATE   -0.290944    
 BOUNDARY      2   LAYER   1   ROW    14   COL     9   RATE    0.285897    



 STREAM LISTING     PERIOD      8   STEP        1

 LAYER ROW COL. STREAM  RCH.  FLOW INTO     FLOW TO   FLOW OUT OF   OVRLND.     DIRECT     STREAM       STREAM     STREAM     STREAM   STREAMBED  STREAMBED
                SEG.NO.  NO.  STRM. RCH.    AQUIFER    STRM. RCH.    RUNOFF     PRECIP       ET          HEAD       DEPTH      WIDTH   CONDCTNC.   GRADIENT

   1    1    1     1     1    6.3000E+01  3.8236E-01   6.2618E+01  0.000E+00  0.000E+00  0.000E+00  1.09461E+03  1.562E+00  1.863E+01  8.382E-02  1.521E+00
   1    2    2     1     2    6.2618E+01  5.9218E-01   6.2025E+01  0.000E+00  0.000E+00  0.000E+00  1.08961E+03  1.556E+00  1.857E+01  1.300E-01  1.519E+00
   1    3    3     1     3    6.2025E+01  5.0506E-01   6.1520E+01  0.000E+00  0.000E+00  0.000E+00  1.08397E+03  1.549E+00  1.850E+01  1.110E-01  1.516E+00
   1    3    4     1     4    6.1520E+01  4.6510E-01   6.1055E+01  0.000E+00  0.000E+00  0.000E+00  1.07895E+03  1.543E+00  1.845E+01  1.024E-01  1.514E+00
   1    4    5     2     1    5.9055E+01  3.9145E-01   5.8664E+01  0.000E+00  0.000E+00  0.000E+00  1.07395E+03  2.019E+00  1.200E+01  7.800E-02  1.673E+00
   1    5    6     2     2    5.8664E+01  3.0068E-01   5.8363E+01  0.000E+00  0.000E+00  0.000E+00  1.06852E+03  2.011E+00  1.200E+01  6.000E-02  1.670E+00
   1    6    6     2     3    5.8363E+01  3.0031E-01   5.8063E+01  0.000E+00  0.000E+00  0.000E+00  1.06380E+03  2.005E+00  1.200E+01  6.000E-02  1.668E+00
   1    7    6     2     4    5.8063E+01  2.9994E-01   5.7763E+01  0.000E+00  0.000E+00  0.000E+00  1.05907E+03  1.999E+00  1.200E+01  6.000E-02  1.666E+00
   1    8    6     2     5    5.7763E+01  2.9957E-01   5.7463E+01  0.000E+00  0.000E+00  0.000E+00  1.05435E+03  1.993E+00  1.200E+01  6.000E-02  1.664E+00
   1    3    5     3     1    2.0000E+00  2.8252E-01   1.7175E+00  0.000E+00  0.000E+00  0.000E+00  1.07555E+03  1.909E+00  9.636E+00  7.227E-02  1.955E+00
   1    3    6     3     2    1.7175E+00  2.4905E-01   1.4684E+00  0.000E+00  0.000E+00  0.000E+00  1.07264E+03  1.727E+00  8.909E+00  6.682E-02  1.864E+00
   1    3    7     3     3    1.4684E+00  1.9718E-01   1.2712E+00  0.000E+00  0.000E+00  0.000E+00  1.06987E+03  1.555E+00  8.218E+00  5.547E-02  1.777E+00
   1    4    8     3     4    1.2712E+00  2.2567E-01   1.0456E+00  0.000E+00  0.000E+00  0.000E+00  1.06682E+03  1.364E+00  7.455E+00  6.709E-02  1.682E+00
   1    5    8     3     5    1.0456E+00  1.5790E-01   8.8768E-01  0.000E+00  0.000E+00  0.000E+00  1.06362E+03  1.164E+00  6.655E+00  4.991E-02  1.582E+00
   1    6    8     3     6    8.8768E-01  5.5980E-02   8.3170E-01  0.000E+00  0.000E+00  0.000E+00  1.06158E+03  1.036E+00  6.145E+00  1.844E-02  1.518E+00
   1    5   10     4     1    1.0000E+01  9.0919E-02   9.9091E+00  0.000E+00  0.000E+00  0.000E+00  1.07836E+03  6.368E-01  1.000E+01  2.500E-02  1.212E+00
   1    5    9     4     2    9.9091E+00  1.8158E-01   9.7275E+00  0.000E+00  0.000E+00  0.000E+00  1.07154E+03  6.315E-01  1.000E+01  5.000E-02  1.211E+00
   1    6    8     4     3    9.7275E+00  1.2689E-01   9.6006E+00  0.000E+00  0.000E+00  0.000E+00  1.06381E+03  6.256E-01  1.000E+01  3.500E-02  1.209E+00
   1    6    8     5     1    1.0432E+01  2.2686E-01   1.0205E+01  0.000E+00  0.000E+00  0.000E+00  1.05868E+03  6.790E-01  1.542E+01  6.166E-02  1.226E+00
   1    7    7     5     2    1.0205E+01  2.7894E-01   9.9265E+00  0.000E+00  0.000E+00  0.000E+00  1.05417E+03  6.732E-01  1.519E+01  7.594E-02  1.224E+00
   1    8    7     5     3    9.9265E+00  1.9221E-01   9.7343E+00  0.000E+00  0.000E+00  0.000E+00  1.04992E+03  6.676E-01  1.497E+01  5.241E-02  1.223E+00
   1    8    6     5     4    9.7343E+00  1.3577E-01   9.5985E+00  0.000E+00  0.000E+00  0.000E+00  1.04691E+03  6.637E-01  1.482E+01  3.706E-02  1.221E+00
   1    9    6     6     1    5.6651E+01  2.9950E-01   5.6351E+01  0.000E+00  0.000E+00  0.000E+00  1.04472E+03  1.992E+00  1.200E+01  6.000E-02  1.664E+00
   1   10    7     6     2    5.6351E+01  2.9912E-01   5.6052E+01  0.000E+00  0.000E+00  0.000E+00  1.04017E+03  1.985E+00  1.200E+01  6.000E-02  1.662E+00
   1   11    7     6     3    5.6052E+01  2.9874E-01   5.5754E+01  0.000E+00  0.000E+00  0.000E+00  1.03562E+03  1.979E+00  1.200E+01  6.000E-02  1.660E+00
   1   12    7     6     4    5.5754E+01  2.9836E-01   5.5455E+01  0.000E+00  0.000E+00  0.000E+00  1.03106E+03  1.973E+00  1.200E+01  6.000E-02  1.658E+00
   1   13    7     6     5    5.5455E+01  1.8464E-02   5.5437E+01  0.000E+00  0.000E+00  0.000E+00  1.02788E+03  1.969E+00  1.200E+01  2.400E-02  2.564E-01
   1   14    9     7     1    1.5000E+02  1.3379E+00   1.4866E+02  0.000E+00  0.000E+00  0.000E+00  1.03987E+03  2.288E+00  5.529E+01  5.593E-01  7.973E-01
   1   13    8     7     2    1.4866E+02  1.8272E+00   1.4683E+02  0.000E+00  0.000E+00  0.000E+00  1.03478E+03  2.279E+00  5.526E+01  6.148E-01  9.907E-01
   1   13    7     7     3    1.4683E+02  1.4414E+00   1.4539E+02  0.000E+00  0.000E+00  0.000E+00  1.02969E+03  2.271E+00  5.522E+01  5.585E-01  8.603E-01
   1   13    6     8     1    2.0083E+02  1.0187E+00   1.9981E+02  0.000E+00  0.000E+00  0.000E+00  1.02501E+03  3.140E+00  4.552E+01  4.639E-01  7.319E-01
   1   13    5     8     2    1.9981E+02  2.6865E-01   1.9954E+02  0.000E+00  0.000E+00  0.000E+00  1.01876E+03  3.136E+00  4.547E+01  4.633E-01  1.933E-01
   1   13    4     8     3    1.9954E+02 -2.2681E+00   2.0181E+02  0.000E+00  0.000E+00  0.000E+00  1.01252E+03  3.142E+00  4.555E+01  4.642E+00 -1.629E-01
   1   13    3     8     4    2.0181E+02 -3.4793E+00   2.0529E+02  0.000E+00  0.000E+00  0.000E+00  1.00628E+03  3.158E+00  4.580E+01  4.667E+00 -2.485E-01
   1   13    2     8     5    2.0529E+02 -2.6624E+00   2.0795E+02  0.000E+00  0.000E+00  0.000E+00  1.00005E+03  3.176E+00  4.606E+01  4.693E+00 -1.891E-01
   1   13    1     8     6    2.0795E+02 -1.6755E+00   2.0963E+02  0.000E+00  0.000E+00  0.000E+00  9.95064E+02  3.189E+00  4.624E+01  2.827E+00 -1.976E-01
   1    6    8     9     1    1.0411E+01  0.0000E+00   1.0411E+01  0.000E+00  0.000E+00  0.000E+00  1.07905E+03  5.521E-01  4.000E+00  0.000E+00  1.184E+00



 UBDSV3 SAVING "           GW ET" ON UNIT  61 AT TIME STEP     1, STRESS PERIOD   8
 UBDSV3 SAVING "    UZF RECHARGE" ON UNIT  61 AT TIME STEP     1, STRESS PERIOD   8
 UBDSV3 SAVING " SURFACE LEAKAGE" ON UNIT  61 AT TIME STEP     1, STRESS PERIOD   8
 UBDSV3 SAVING "       HORT+DUNN" ON UNIT  61 AT TIME STEP     1, STRESS PERIOD   8
 UBDSV3 SAVING "  STORAGE CHANGE" ON UNIT  61 AT TIME STEP     1, STRESS PERIOD   8


UNSATURATED ZONE PACKAGE VOLUMETRIC BUDGET FOR  TIME STEP     1 STRESS PERIOD    8
  ------------------------------------------------------------------------------



     CUMULATIVE VOLUMES      L**3       RATES FOR THIS TIME STEP      L**3/T
     ------------------                 ------------------------

           IN:                                      IN:
           ---                                      ---
        INFILTRATION =    31593806.1094          INFILTRATION =           9.1476

          OUT:                                     OUT:
          ----                                     ----
              UZF ET =     8643784.7483                UZF ET =           6.8093
        UZF RECHARGE =       73224.0000          UZF RECHARGE =       0.0000E+00

            IN - OUT =    22876797.3611              IN - OUT =           2.3383

          STORAGE:                                 STORAGE:
          --------                                 --------
      STORAGE CHANGE =    22876360.2976        STORAGE CHANGE =           2.3383

 PERCENT DISCREPANCY IS DIFFERENCE BETWEEN IN-OUT MINUS CHANGE IN STORAGE
 DIVIDED BY THE AVERAGE OF IN AND OUT TIMES 100

 PERCENT DISCREPANCY =           0.00     PERCENT DISCREPANCY =           0.00






 

 AWU WELLS                PERIOD    8   STEP   1
 AWU WELL      1   LAYER   1   ROW     6   COL     4   RATE    -1.52460    
 AWU WELL      2   LAYER   1   ROW     6   COL     5   RATE    -1.52460    
 AWU WELL      3   LAYER   1   ROW     7   COL     4   RATE    -1.52460    
 AWU WELL      4   LAYER   1   ROW     7   COL     5   RATE    -1.52460    
 AWU WELL      5   LAYER   1   ROW     8   COL     4   RATE    -1.52460    
 AWU WELL      6   LAYER   1   ROW     8   COL     5   RATE    -1.52460    
 
 

 GW IRRIGATION            PERIOD    8   STEP   1
 AWU WELL      1   ROW     6   COL     4   RATE     1.52460    
 AWU WELL      2   ROW     6   COL     5   RATE     1.52460    
 AWU WELL      3   ROW     7   COL     4   RATE     1.52460    
 AWU WELL      4   ROW     7   COL     5   RATE     1.52460    
 AWU WELL      5   ROW     8   COL     4   RATE     1.52460    
 AWU WELL      6   ROW     8   COL     5   RATE     1.52460    
 
1
  VOLUMETRIC BUDGET FOR ENTIRE MODEL AT END OF TIME STEP    1, STRESS PERIOD   8
  ------------------------------------------------------------------------------

     CUMULATIVE VOLUMES      L**3       RATES FOR THIS TIME STEP      L**3/T
     ------------------                 ------------------------

           IN:                                      IN:
           ---                                      ---
    AWU WELLS            =    31520580.0000      AWU WELLS            =           9.1476
    DIVERSION SEGMENTS   =           0.0000      DIVERSION SEGMENTS   =           0.0000
    GW IRRIGATION        =           0.0000      GW IRRIGATION        =           0.0000
    SW IRRIGATION        =           0.0000      SW IRRIGATION        =           0.0000
    EFFICIENCY FACTOR GW =           0.0000      EFFICIENCY FACTOR GW =           0.0000
    EFFICIENCY FACTOR SW =           0.0000      EFFICIENCY FACTOR SW =           0.0000

                TOTAL IN =    31520580.0000                  TOTAL IN =           9.1476

          OUT:                                     OUT:
          ----                                     ----
    AWU WELLS            =           0.0000      AWU WELLS            =           0.0000
    DIVERSION SEGMENTS   =           0.0000      DIVERSION SEGMENTS   =           0.0000
    GW IRRIGATION        =    31520580.0000      GW IRRIGATION        =           9.1476
    SW IRRIGATION        =           0.0000      SW IRRIGATION        =           0.0000
    EFFICIENCY FACTOR GW =           0.0000      EFFICIENCY FACTOR GW =           0.0000
    EFFICIENCY FACTOR SW =           0.0000      EFFICIENCY FACTOR SW =           0.0000

               TOTAL OUT =    31520580.0000                 TOTAL OUT =           9.1476

                IN - OUT =           0.0000                  IN - OUT =           0.0000

     PERCENT DISCREPANCY =           0.00         PERCENT DISCREPANCY =           0.00



1
  VOLUMETRIC BUDGET FOR ENTIRE MODEL AT END OF TIME STEP    1, STRESS PERIOD   8
  ------------------------------------------------------------------------------

     CUMULATIVE VOLUMES      L**3       RATES FOR THIS TIME STEP      L**3/T
     ------------------                 ------------------------

           IN:                                      IN:
           ---                                      ---
             STORAGE     =    40550408.0000               STORAGE     =          15.8079
       CONSTANT HEAD     =           0.0000         CONSTANT HEAD     =           0.0000
     HEAD DEP BOUNDS     =     4557004.0000       HEAD DEP BOUNDS     =           0.2859
      STREAM LEAKAGE     =   196224208.0000        STREAM LEAKAGE     =          13.0460
        UZF RECHARGE     =       73223.9531          UZF RECHARGE     =           0.0000
               GW ET     =           0.0000                 GW ET     =           0.0000
     SURFACE LEAKAGE     =           0.0000       SURFACE LEAKAGE     =           0.0000
    AWU WELLS            =           0.0000      AWU WELLS            =           0.0000

                TOTAL IN =   241404832.0000                  TOTAL IN =          29.1398

          OUT:                                     OUT:
          ----                                     ----
             STORAGE     =    33482668.0000               STORAGE     =           1.2494
       CONSTANT HEAD     =           0.0000         CONSTANT HEAD     =           0.0000
     HEAD DEP BOUNDS     =     4626125.5000       HEAD DEP BOUNDS     =           0.2909
      STREAM LEAKAGE     =   158491408.0000        STREAM LEAKAGE     =          10.0853
        UZF RECHARGE     =           0.0000          UZF RECHARGE     =           0.0000
               GW ET     =    13287656.0000                 GW ET     =           8.3672
     SURFACE LEAKAGE     =           0.0000       SURFACE LEAKAGE     =           0.0000
    AWU WELLS            =    31520580.0000      AWU WELLS            =           9.1476

               TOTAL OUT =   241408416.0000                 TOTAL OUT =          29.1405

                IN - OUT =       -3584.0000                  IN - OUT =      -7.2479E-04

     PERCENT DISCREPANCY =          -0.00         PERCENT DISCREPANCY =          -0.00






         TIME SUMMARY AT END OF TIME STEP    1 IN STRESS PERIOD    8
                    SECONDS     MINUTES      HOURS       DAYS        YEARS
                    -----------------------------------------------------------
   TIME STEP LENGTH  87600.      1460.0      24.333      1.0139     2.77588E-03
 STRESS PERIOD TIME  87600.      1460.0      24.333      1.0139     2.77588E-03
         TOTAL TIME 1.59420E+07 2.65700E+05  4428.3      184.51     0.50517    
1
 
 SOLVING FOR HEAD 
                                                   Max.-Head-Change                         Max.-Flux-Residual
  Residual-Control   Outer-Iter.   Inner-Iter.     Column Row Layer    Maximum-Head-Change  Column Row Layer    Maximum-Flux-Residual          L2-NORM 
          0                 1           2             4   13     1      -0.2394235983E-01       4   13    1        -0.1378363481E+01      0.3759771395E+01
          0                 2           2             4   13     1       0.2344134981E-02       4   13    1         0.1361962217E+00      0.3713689526E+00
          0                 3           2             4   13     1      -0.2063072530E-03       4   13    1        -0.1209723167E-01      0.3299112701E-01
          0                 4           1             4   13     1       0.1613173229E-04       4   13    1         0.9546429337E-03      0.2605802557E-02

    ------------------------------------------------
       NWT REQUIRED            4 OUTER ITERATIONS 
       AND A TOTAL OF          7 INNER ITERATIONS.
    ------------------------------------------------

 NO OUTPUT CONTROL FOR STRESS PERIOD    8   TIME STEP    2
 
 SOLVING FOR HEAD 
                                                   Max.-Head-Change                         Max.-Flux-Residual
  Residual-Control   Outer-Iter.   Inner-Iter.     Column Row Layer    Maximum-Head-Change  Column Row Layer    Maximum-Flux-Residual          L2-NORM 
          0                 1           2             4   13     1      -0.2165518599E-01       4   13    1        -0.1245654396E+01      0.3560129151E+01
          0                 2           2             4   13     1       0.2119642236E-02       4   13    1         0.1230493673E+00      0.3518812843E+00
          0                 3           2             4   13     1      -0.1864876317E-03       4   13    1        -0.1092571761E-01      0.3128218659E-01
          0                 4           1             4    7     1       0.1479509029E-04       4   13    1         0.8610217646E-03      0.2473102608E-02

    ------------------------------------------------
       NWT REQUIRED            4 OUTER ITERATIONS 
       AND A TOTAL OF          7 INNER ITERATIONS.
    ------------------------------------------------

 NO OUTPUT CONTROL FOR STRESS PERIOD    8   TIME STEP    3
 
 SOLVING FOR HEAD 
                                                   Max.-Head-Change                         Max.-Flux-Residual
  Residual-Control   Outer-Iter.   Inner-Iter.     Column Row Layer    Maximum-Head-Change  Column Row Layer    Maximum-Flux-Residual          L2-NORM 
          0                 1           2             4    7     1      -0.2056165849E-01       4   13    1        -0.1126681162E+01      0.3381308057E+01
          0                 2           2             4    7     1       0.2037467994E-02       4   13    1         0.1112658092E+00      0.3344345592E+00
          0                 3           2             4    7     1      -0.1817067077E-03       4   13    1        -0.9876288393E-02      0.2975301871E-01
          0                 4           1             4    7     1       0.1442263893E-04       4    7    1         0.7763237018E-03      0.2353219332E-02

    ------------------------------------------------
       NWT REQUIRED            4 OUTER ITERATIONS 
       AND A TOTAL OF          7 INNER ITERATIONS.
    ------------------------------------------------

 NO OUTPUT CONTROL FOR STRESS PERIOD    8   TIME STEP    4
 
 SOLVING FOR HEAD 
                                                   Max.-Head-Change                         Max.-Flux-Residual
  Residual-Control   Outer-Iter.   Inner-Iter.     Column Row Layer    Maximum-Head-Change  Column Row Layer    Maximum-Flux-Residual          L2-NORM 
          0                 1           2             4    7     1      -0.2006583889E-01       4    7    1        -0.1051230300E+01      0.3220169898E+01
          0                 2           2             4    7     1       0.1988336778E-02       4    7    1         0.1051226785E+00      0.3187156554E+00
          0                 3           2             4    7     1      -0.1773250594E-03       4    7    1        -0.9461045705E-02      0.2837584759E-01
          0                 4           1             4    7     1       0.1407485334E-04       4    7    1         0.7578299189E-03      0.2246720758E-02

    ------------------------------------------------
       NWT REQUIRED            4 OUTER ITERATIONS 
       AND A TOTAL OF          7 INNER ITERATIONS.
    ------------------------------------------------

 OUTPUT CONTROL FOR STRESS PERIOD    8   TIME STEP    5
    PRINT BUDGET
    SAVE BUDGET
 UBDSV1 SAVING "         STORAGE" ON UNIT 102 AT TIME STEP     5, STRESS PERIOD   8
 UBDSV2 SAVING "   CONSTANT HEAD" ON UNIT 102 AT TIME STEP     5, STRESS PERIOD   8
 UBDSV1 SAVING "FLOW RIGHT FACE " ON UNIT 102 AT TIME STEP     5, STRESS PERIOD   8
 UBDSV1 SAVING "FLOW FRONT FACE " ON UNIT 102 AT TIME STEP     5, STRESS PERIOD   8

  HEAD DEP BOUNDS   PERIOD    8   STEP     5
 BOUNDARY      1   LAYER   1   ROW    13   COL     1   RATE   -0.288197    
 BOUNDARY      2   LAYER   1   ROW    14   COL     9   RATE    0.285897    



 STREAM LISTING     PERIOD      8   STEP        5

 LAYER ROW COL. STREAM  RCH.  FLOW INTO     FLOW TO   FLOW OUT OF   OVRLND.     DIRECT     STREAM       STREAM     STREAM     STREAM   STREAMBED  STREAMBED
                SEG.NO.  NO.  STRM. RCH.    AQUIFER    STRM. RCH.    RUNOFF     PRECIP       ET          HEAD       DEPTH      WIDTH   CONDCTNC.   GRADIENT

   1    1    1     1     1    6.3000E+01  3.8236E-01   6.2618E+01  0.000E+00  0.000E+00  0.000E+00  1.09461E+03  1.562E+00  1.863E+01  8.382E-02  1.521E+00
   1    2    2     1     2    6.2618E+01  5.9218E-01   6.2025E+01  0.000E+00  0.000E+00  0.000E+00  1.08961E+03  1.556E+00  1.857E+01  1.300E-01  1.519E+00
   1    3    3     1     3    6.2025E+01  5.0506E-01   6.1520E+01  0.000E+00  0.000E+00  0.000E+00  1.08397E+03  1.549E+00  1.850E+01  1.110E-01  1.516E+00
   1    3    4     1     4    6.1520E+01  4.6510E-01   6.1055E+01  0.000E+00  0.000E+00  0.000E+00  1.07895E+03  1.543E+00  1.845E+01  1.024E-01  1.514E+00
   1    4    5     2     1    5.9055E+01  3.9145E-01   5.8664E+01  0.000E+00  0.000E+00  0.000E+00  1.07395E+03  2.019E+00  1.200E+01  7.800E-02  1.673E+00
   1    5    6     2     2    5.8664E+01  3.0068E-01   5.8363E+01  0.000E+00  0.000E+00  0.000E+00  1.06852E+03  2.011E+00  1.200E+01  6.000E-02  1.670E+00
   1    6    6     2     3    5.8363E+01  3.0031E-01   5.8063E+01  0.000E+00  0.000E+00  0.000E+00  1.06380E+03  2.005E+00  1.200E+01  6.000E-02  1.668E+00
   1    7    6     2     4    5.8063E+01  2.9994E-01   5.7763E+01  0.000E+00  0.000E+00  0.000E+00  1.05907E+03  1.999E+00  1.200E+01  6.000E-02  1.666E+00
   1    8    6     2     5    5.7763E+01  2.9957E-01   5.7463E+01  0.000E+00  0.000E+00  0.000E+00  1.05435E+03  1.993E+00  1.200E+01  6.000E-02  1.664E+00
   1    3    5     3     1    2.0000E+00  2.8252E-01   1.7175E+00  0.000E+00  0.000E+00  0.000E+00  1.07555E+03  1.909E+00  9.636E+00  7.227E-02  1.955E+00
   1    3    6     3     2    1.7175E+00  2.4905E-01   1.4684E+00  0.000E+00  0.000E+00  0.000E+00  1.07264E+03  1.727E+00  8.909E+00  6.682E-02  1.864E+00
   1    3    7     3     3    1.4684E+00  1.9718E-01   1.2712E+00  0.000E+00  0.000E+00  0.000E+00  1.06987E+03  1.555E+00  8.218E+00  5.547E-02  1.777E+00
   1    4    8     3     4    1.2712E+00  2.2567E-01   1.0456E+00  0.000E+00  0.000E+00  0.000E+00  1.06682E+03  1.364E+00  7.455E+00  6.709E-02  1.682E+00
   1    5    8     3     5    1.0456E+00  1.5790E-01   8.8768E-01  0.000E+00  0.000E+00  0.000E+00  1.06362E+03  1.164E+00  6.655E+00  4.991E-02  1.582E+00
   1    6    8     3     6    8.8768E-01  5.5980E-02   8.3170E-01  0.000E+00  0.000E+00  0.000E+00  1.06158E+03  1.036E+00  6.145E+00  1.844E-02  1.518E+00
   1    5   10     4     1    1.0000E+01  9.0919E-02   9.9091E+00  0.000E+00  0.000E+00  0.000E+00  1.07836E+03  6.368E-01  1.000E+01  2.500E-02  1.212E+00
   1    5    9     4     2    9.9091E+00  1.8158E-01   9.7275E+00  0.000E+00  0.000E+00  0.000E+00  1.07154E+03  6.315E-01  1.000E+01  5.000E-02  1.211E+00
   1    6    8     4     3    9.7275E+00  1.2689E-01   9.6006E+00  0.000E+00  0.000E+00  0.000E+00  1.06381E+03  6.256E-01  1.000E+01  3.500E-02  1.209E+00
   1    6    8     5     1    1.0432E+01  2.2686E-01   1.0205E+01  0.000E+00  0.000E+00  0.000E+00  1.05868E+03  6.790E-01  1.542E+01  6.166E-02  1.226E+00
   1    7    7     5     2    1.0205E+01  2.7894E-01   9.9265E+00  0.000E+00  0.000E+00  0.000E+00  1.05417E+03  6.732E-01  1.519E+01  7.594E-02  1.224E+00
   1    8    7     5     3    9.9265E+00  1.9221E-01   9.7343E+00  0.000E+00  0.000E+00  0.000E+00  1.04992E+03  6.676E-01  1.497E+01  5.241E-02  1.223E+00
   1    8    6     5     4    9.7343E+00  1.3577E-01   9.5985E+00  0.000E+00  0.000E+00  0.000E+00  1.04691E+03  6.637E-01  1.482E+01  3.706E-02  1.221E+00
   1    9    6     6     1    6.7062E+01  3.1225E-01   6.6750E+01  0.000E+00  0.000E+00  0.000E+00  1.04493E+03  2.204E+00  1.200E+01  6.000E-02  1.735E+00
   1   10    7     6     2    6.6750E+01  3.1188E-01   6.6438E+01  0.000E+00  0.000E+00  0.000E+00  1.04038E+03  2.198E+00  1.200E+01  6.000E-02  1.733E+00
   1   11    7     6     3    6.6438E+01  3.1151E-01   6.6126E+01  0.000E+00  0.000E+00  0.000E+00  1.03583E+03  2.192E+00  1.200E+01  6.000E-02  1.731E+00
   1   12    7     6     4    6.6126E+01  3.1114E-01   6.5815E+01  0.000E+00  0.000E+00  0.000E+00  1.03128E+03  2.186E+00  1.200E+01  6.000E-02  1.729E+00
   1   13    7     6     5    6.5815E+01  2.3818E-02   6.5791E+01  0.000E+00  0.000E+00  0.000E+00  1.02809E+03  2.182E+00  1.200E+01  2.400E-02  3.308E-01
   1   14    9     7     1    1.5000E+02  1.3378E+00   1.4866E+02  0.000E+00  0.000E+00  0.000E+00  1.03987E+03  2.288E+00  5.529E+01  5.593E-01  7.973E-01
   1   13    8     7     2    1.4866E+02  1.8272E+00   1.4683E+02  0.000E+00  0.000E+00  0.000E+00  1.03478E+03  2.279E+00  5.526E+01  6.148E-01  9.907E-01
   1   13    7     7     3    1.4683E+02  1.4469E+00   1.4539E+02  0.000E+00  0.000E+00  0.000E+00  1.02969E+03  2.271E+00  5.522E+01  5.585E-01  8.636E-01
   1   13    6     8     1    2.1118E+02  1.0791E+00   2.1010E+02  0.000E+00  0.000E+00  0.000E+00  1.02507E+03  3.199E+00  4.639E+01  4.727E-01  7.609E-01
   1   13    5     8     2    2.1010E+02  3.3216E-01   2.0977E+02  0.000E+00  0.000E+00  0.000E+00  1.01882E+03  3.195E+00  4.633E+01  4.721E-01  2.345E-01
   1   13    4     8     3    2.0977E+02 -1.6812E+00   2.1145E+02  0.000E+00  0.000E+00  0.000E+00  1.01257E+03  3.199E+00  4.639E+01  4.727E+00 -1.185E-01
   1   13    3     8     4    2.1145E+02 -2.9306E+00   2.1438E+02  0.000E+00  0.000E+00  0.000E+00  1.00634E+03  3.212E+00  4.658E+01  4.746E+00 -2.058E-01
   1   13    2     8     5    2.1438E+02 -2.2354E+00   2.1662E+02  0.000E+00  0.000E+00  0.000E+00  1.00010E+03  3.227E+00  4.679E+01  4.768E+00 -1.563E-01
   1   13    1     8     6    2.1662E+02 -1.3553E+00   2.1797E+02  0.000E+00  0.000E+00  0.000E+00  9.95112E+02  3.237E+00  4.693E+01  2.870E+00 -1.574E-01
   1    6    8     9     1    0.0000E+00  0.0000E+00   0.0000E+00  0.000E+00  0.000E+00  0.000E+00  1.07850E+03  0.000E+00  4.000E+00  0.000E+00  1.000E+00



 UBDSV3 SAVING "           GW ET" ON UNIT  61 AT TIME STEP     5, STRESS PERIOD   8
 UBDSV3 SAVING "    UZF RECHARGE" ON UNIT  61 AT TIME STEP     5, STRESS PERIOD   8
 UBDSV3 SAVING " SURFACE LEAKAGE" ON UNIT  61 AT TIME STEP     5, STRESS PERIOD   8
 UBDSV3 SAVING "       HORT+DUNN" ON UNIT  61 AT TIME STEP     5, STRESS PERIOD   8
 UBDSV3 SAVING "  STORAGE CHANGE" ON UNIT  61 AT TIME STEP     5, STRESS PERIOD   8


UNSATURATED ZONE PACKAGE VOLUMETRIC BUDGET FOR  TIME STEP     5 STRESS PERIOD    8
  ------------------------------------------------------------------------------



     CUMULATIVE VOLUMES      L**3       RATES FOR THIS TIME STEP      L**3/T
     ------------------                 ------------------------

           IN:                                      IN:
           ---                                      ---
        INFILTRATION =    34679464.7344          INFILTRATION =           8.6314

          OUT:                                     OUT:
          ----                                     ----
              UZF ET =    11069022.0608                UZF ET =           6.9796
        UZF RECHARGE =       73224.0000          UZF RECHARGE =       0.0000E+00

            IN - OUT =    23537218.6736              IN - OUT =           1.6518

          STORAGE:                                 STORAGE:
          --------                                 --------
      STORAGE CHANGE =    23536781.5698        STORAGE CHANGE =           1.6518

 PERCENT DISCREPANCY IS DIFFERENCE BETWEEN IN-OUT MINUS CHANGE IN STORAGE
 DIVIDED BY THE AVERAGE OF IN AND OUT TIMES 100

 PERCENT DISCREPANCY =           0.00     PERCENT DISCREPANCY =           0.00






 

 AWU WELLS                PERIOD    8   STEP   5
 AWU WELL      1   LAYER   1   ROW     6   COL     4   RATE    -1.43857    
 AWU WELL      2   LAYER   1   ROW     6   COL     5   RATE    -1.43857    
 AWU WELL      3   LAYER   1   ROW     7   COL     4   RATE    -1.43857    
 AWU WELL      4   LAYER   1   ROW     7   COL     5   RATE    -1.43857    
 AWU WELL      5   LAYER   1   ROW     8   COL     4   RATE    -1.43857    
 AWU WELL      6   LAYER   1   ROW     8   COL     5   RATE    -1.43857    
 
 

 GW IRRIGATION            PERIOD    8   STEP   5
 AWU WELL      1   ROW     6   COL     4   RATE     1.43857    
 AWU WELL      2   ROW     6   COL     5   RATE     1.43857    
 AWU WELL      3   ROW     7   COL     4   RATE     1.43857    
 AWU WELL      4   ROW     7   COL     5   RATE     1.43857    
 AWU WELL      5   ROW     8   COL     4   RATE     1.43857    
 AWU WELL      6   ROW     8   COL     5   RATE     1.43857    
 
1
  VOLUMETRIC BUDGET FOR ENTIRE MODEL AT END OF TIME STEP    5, STRESS PERIOD   8
  ------------------------------------------------------------------------------

     CUMULATIVE VOLUMES      L**3       RATES FOR THIS TIME STEP      L**3/T
     ------------------                 ------------------------

           IN:                                      IN:
           ---                                      ---
    AWU WELLS            =    34606240.0000      AWU WELLS            =           8.6314
    DIVERSION SEGMENTS   =           0.0000      DIVERSION SEGMENTS   =           0.0000
    GW IRRIGATION        =           0.0000      GW IRRIGATION        =           0.0000
    SW IRRIGATION        =           0.0000      SW IRRIGATION        =           0.0000
    EFFICIENCY FACTOR GW =           0.0000      EFFICIENCY FACTOR GW =           0.0000
    EFFICIENCY FACTOR SW =           0.0000      EFFICIENCY FACTOR SW =           0.0000

                TOTAL IN =    34606240.0000                  TOTAL IN =           8.6314

          OUT:                                     OUT:
          ----                                     ----
    AWU WELLS            =           0.0000      AWU WELLS            =           0.0000
    DIVERSION SEGMENTS   =           0.0000      DIVERSION SEGMENTS   =           0.0000
    GW IRRIGATION        =    34606240.0000      GW IRRIGATION        =           8.6314
    SW IRRIGATION        =           0.0000      SW IRRIGATION        =           0.0000
    EFFICIENCY FACTOR GW =           0.0000      EFFICIENCY FACTOR GW =           0.0000
    EFFICIENCY FACTOR SW =           0.0000      EFFICIENCY FACTOR SW =           0.0000

               TOTAL OUT =    34606240.0000                 TOTAL OUT =           8.6314

                IN - OUT =           0.0000                  IN - OUT =           0.0000

     PERCENT DISCREPANCY =           0.00         PERCENT DISCREPANCY =           0.00



1
  VOLUMETRIC BUDGET FOR ENTIRE MODEL AT END OF TIME STEP    5, STRESS PERIOD   8
  ------------------------------------------------------------------------------

     CUMULATIVE VOLUMES      L**3       RATES FOR THIS TIME STEP      L**3/T
     ------------------                 ------------------------

           IN:                                      IN:
           ---                                      ---
             STORAGE     =    45340816.0000               STORAGE     =          13.0238
       CONSTANT HEAD     =           0.0000         CONSTANT HEAD     =           0.0000
     HEAD DEP BOUNDS     =     4657182.0000       HEAD DEP BOUNDS     =           0.2859
      STREAM LEAKAGE     =   200854416.0000        STREAM LEAKAGE     =          13.2319
        UZF RECHARGE     =       73223.9531          UZF RECHARGE     =           0.0000
               GW ET     =           0.0000                 GW ET     =           0.0000
     SURFACE LEAKAGE     =           0.0000       SURFACE LEAKAGE     =           0.0000
    AWU WELLS            =           0.0000      AWU WELLS            =           0.0000

                TOTAL IN =   250925632.0000                  TOTAL IN =          26.5416

          OUT:                                     OUT:
          ----                                     ----
             STORAGE     =    33910720.0000               STORAGE     =           1.2015
       CONSTANT HEAD     =           0.0000         CONSTANT HEAD     =           0.0000
     HEAD DEP BOUNDS     =     4727453.5000       HEAD DEP BOUNDS     =           0.2882
      STREAM LEAKAGE     =   161499168.0000        STREAM LEAKAGE     =           8.2025
        UZF RECHARGE     =           0.0000          UZF RECHARGE     =           0.0000
               GW ET     =    16185872.0000                 GW ET     =           8.2186
     SURFACE LEAKAGE     =           0.0000       SURFACE LEAKAGE     =           0.0000
    AWU WELLS            =    34606240.0000      AWU WELLS            =           8.6314

               TOTAL OUT =   250929456.0000                 TOTAL OUT =          26.5422

                IN - OUT =       -3824.0000                  IN - OUT =      -5.8746E-04

     PERCENT DISCREPANCY =          -0.00         PERCENT DISCREPANCY =          -0.00






         TIME SUMMARY AT END OF TIME STEP    5 IN STRESS PERIOD    8
                    SECONDS     MINUTES      HOURS       DAYS        YEARS
                    -----------------------------------------------------------
   TIME STEP LENGTH  87600.      1460.0      24.333      1.0139     2.77588E-03
 STRESS PERIOD TIME 4.38000E+05  7300.0      121.67      5.0694     1.38794E-02
         TOTAL TIME 1.62924E+07 2.71540E+05  4525.7      188.57     0.51627    
1
 
 SOLVING FOR HEAD 
                                                   Max.-Head-Change                         Max.-Flux-Residual
  Residual-Control   Outer-Iter.   Inner-Iter.     Column Row Layer    Maximum-Head-Change  Column Row Layer    Maximum-Flux-Residual          L2-NORM 
          0                 1           2             4    7     1      -0.1961469410E-01       4    7    1        -0.1027877953E+01      0.3076073340E+01
          0                 2           2             4    7     1       0.1943632443E-02       4    7    1         0.1027874438E+00      0.3046644302E+00
          0                 3           2             4    7     1      -0.1733382112E-03       4    7    1        -0.9250874549E-02      0.2714462614E-01
          0                 4           1             4    7     1       0.1375840445E-04       4    7    1         0.7409952113E-03      0.2150768755E-02

    ------------------------------------------------
       NWT REQUIRED            4 OUTER ITERATIONS 
       AND A TOTAL OF          7 INNER ITERATIONS.
    ------------------------------------------------

 NO OUTPUT CONTROL FOR STRESS PERIOD    8   TIME STEP    6
 
 SOLVING FOR HEAD 
                                                   Max.-Head-Change                         Max.-Flux-Residual
  Residual-Control   Outer-Iter.   Inner-Iter.     Column Row Layer    Maximum-Head-Change  Column Row Layer    Maximum-Flux-Residual          L2-NORM 
          0                 1           2             4    7     1      -0.1919673371E-01       4    7    1        -0.1006231530E+01      0.2946513369E+01
          0                 2           2             4    7     1       0.1902216394E-02       4    7    1         0.1006228025E+00      0.2920326484E+00
          0                 3           2             4    7     1      -0.1696446208E-03       4    7    1        -0.9056056801E-02      0.2603764906E-01
          0                 4           1             4    7     1       0.1346523250E-04       4    7    1         0.7253903057E-03      0.2064858063E-02

    ------------------------------------------------
       NWT REQUIRED            4 OUTER ITERATIONS 
       AND A TOTAL OF          7 INNER ITERATIONS.
    ------------------------------------------------

 NO OUTPUT CONTROL FOR STRESS PERIOD    8   TIME STEP    7
 
 SOLVING FOR HEAD 
                                                   Max.-Head-Change                         Max.-Flux-Residual
  Residual-Control   Outer-Iter.   Inner-Iter.     Column Row Layer    Maximum-Head-Change  Column Row Layer    Maximum-Flux-Residual          L2-NORM 
          0                 1           2             4    7     1      -0.1881202100E-01       4   13    1        -0.1056093356E+01      0.3125866859E+01
          0                 2           2             4    7     1       0.1864094898E-02       4   13    1         0.1043051327E+00      0.3088932521E+00
          0                 3           2             4    7     1      -0.1662448472E-03       4   13    1        -0.9252160790E-02      0.2745175539E-01
          0                 4           1             4    7     1       0.1319538153E-04       4   13    1         0.7223956291E-03      0.2167730995E-02

    ------------------------------------------------
       NWT REQUIRED            4 OUTER ITERATIONS 
       AND A TOTAL OF          7 INNER ITERATIONS.
    ------------------------------------------------

 NO OUTPUT CONTROL FOR STRESS PERIOD    8   TIME STEP    8
 
 SOLVING FOR HEAD 
                                                   Max.-Head-Change                         Max.-Flux-Residual
  Residual-Control   Outer-Iter.   Inner-Iter.     Column Row Layer    Maximum-Head-Change  Column Row Layer    Maximum-Flux-Residual          L2-NORM 
          0                 1           2             4   13     1      -0.1969945952E-01       4   13    1        -0.1129894909E+01      0.3179914876E+01
          0                 2           2             4   13     1       0.1928493259E-02       4   13    1         0.1116297211E+00      0.3138872453E+00
          0                 3           2             4   13     1      -0.1697016445E-03       4   13    1        -0.9913505831E-02      0.2786350177E-01
          0                 4           1             4   13     1       0.1327757308E-04       4   13    1         0.7827866284E-03      0.2199278144E-02

    ------------------------------------------------
       NWT REQUIRED            4 OUTER ITERATIONS 
       AND A TOTAL OF          7 INNER ITERATIONS.
    ------------------------------------------------

 NO OUTPUT CONTROL FOR STRESS PERIOD    8   TIME STEP    9
 
 SOLVING FOR HEAD 
                                                   Max.-Head-Change                         Max.-Flux-Residual
  Residual-Control   Outer-Iter.   Inner-Iter.     Column Row Layer    Maximum-Head-Change  Column Row Layer    Maximum-Flux-Residual          L2-NORM 
          0                 1           2             4    7     1      -0.1813553993E-01       4   13    1        -0.1024918973E+01      0.3037953418E+01
          0                 2           2             4    7     1       0.1797061862E-02       4   13    1         0.1012297034E+00      0.3001247023E+00
          0                 3           2             4    7     1      -0.1602666673E-03       4   13    1        -0.8986164651E-02      0.2666630642E-01
          0                 4           1             4    7     1       0.1272087514E-04       4   13    1         0.7085573425E-03      0.2107697216E-02

    ------------------------------------------------
       NWT REQUIRED            4 OUTER ITERATIONS 
       AND A TOTAL OF          7 INNER ITERATIONS.
    ------------------------------------------------

 OUTPUT CONTROL FOR STRESS PERIOD    8   TIME STEP   10
    PRINT BUDGET
    SAVE BUDGET
 UBDSV1 SAVING "         STORAGE" ON UNIT 102 AT TIME STEP    10, STRESS PERIOD   8
 UBDSV2 SAVING "   CONSTANT HEAD" ON UNIT 102 AT TIME STEP    10, STRESS PERIOD   8
 UBDSV1 SAVING "FLOW RIGHT FACE " ON UNIT 102 AT TIME STEP    10, STRESS PERIOD   8
 UBDSV1 SAVING "FLOW FRONT FACE " ON UNIT 102 AT TIME STEP    10, STRESS PERIOD   8

  HEAD DEP BOUNDS   PERIOD    8   STEP    10
 BOUNDARY      1   LAYER   1   ROW    13   COL     1   RATE   -0.285125    
 BOUNDARY      2   LAYER   1   ROW    14   COL     9   RATE    0.285897    



 STREAM LISTING     PERIOD      8   STEP       10

 LAYER ROW COL. STREAM  RCH.  FLOW INTO     FLOW TO   FLOW OUT OF   OVRLND.     DIRECT     STREAM       STREAM     STREAM     STREAM   STREAMBED  STREAMBED
                SEG.NO.  NO.  STRM. RCH.    AQUIFER    STRM. RCH.    RUNOFF     PRECIP       ET          HEAD       DEPTH      WIDTH   CONDCTNC.   GRADIENT

   1    1    1     1     1    6.3000E+01  3.8236E-01   6.2618E+01  0.000E+00  0.000E+00  0.000E+00  1.09461E+03  1.562E+00  1.863E+01  8.382E-02  1.521E+00
   1    2    2     1     2    6.2618E+01  5.9218E-01   6.2025E+01  0.000E+00  0.000E+00  0.000E+00  1.08961E+03  1.556E+00  1.857E+01  1.300E-01  1.519E+00
   1    3    3     1     3    6.2025E+01  5.0506E-01   6.1520E+01  0.000E+00  0.000E+00  0.000E+00  1.08397E+03  1.549E+00  1.850E+01  1.110E-01  1.516E+00
   1    3    4     1     4    6.1520E+01  4.6510E-01   6.1055E+01  0.000E+00  0.000E+00  0.000E+00  1.07895E+03  1.543E+00  1.845E+01  1.024E-01  1.514E+00
   1    4    5     2     1    5.9055E+01  3.9145E-01   5.8664E+01  0.000E+00  0.000E+00  0.000E+00  1.07395E+03  2.019E+00  1.200E+01  7.800E-02  1.673E+00
   1    5    6     2     2    5.8664E+01  3.0068E-01   5.8363E+01  0.000E+00  0.000E+00  0.000E+00  1.06852E+03  2.011E+00  1.200E+01  6.000E-02  1.670E+00
   1    6    6     2     3    5.8363E+01  3.0031E-01   5.8063E+01  0.000E+00  0.000E+00  0.000E+00  1.06380E+03  2.005E+00  1.200E+01  6.000E-02  1.668E+00
   1    7    6     2     4    5.8063E+01  2.9994E-01   5.7763E+01  0.000E+00  0.000E+00  0.000E+00  1.05907E+03  1.999E+00  1.200E+01  6.000E-02  1.666E+00
   1    8    6     2     5    5.7763E+01  2.9957E-01   5.7463E+01  0.000E+00  0.000E+00  0.000E+00  1.05435E+03  1.993E+00  1.200E+01  6.000E-02  1.664E+00
   1    3    5     3     1    2.0000E+00  2.8252E-01   1.7175E+00  0.000E+00  0.000E+00  0.000E+00  1.07555E+03  1.909E+00  9.636E+00  7.227E-02  1.955E+00
   1    3    6     3     2    1.7175E+00  2.4905E-01   1.4684E+00  0.000E+00  0.000E+00  0.000E+00  1.07264E+03  1.727E+00  8.909E+00  6.682E-02  1.864E+00
   1    3    7     3     3    1.4684E+00  1.9718E-01   1.2712E+00  0.000E+00  0.000E+00  0.000E+00  1.06987E+03  1.555E+00  8.218E+00  5.547E-02  1.777E+00
   1    4    8     3     4    1.2712E+00  2.2567E-01   1.0456E+00  0.000E+00  0.000E+00  0.000E+00  1.06682E+03  1.364E+00  7.455E+00  6.709E-02  1.682E+00
   1    5    8     3     5    1.0456E+00  1.5790E-01   8.8768E-01  0.000E+00  0.000E+00  0.000E+00  1.06362E+03  1.164E+00  6.655E+00  4.991E-02  1.582E+00
   1    6    8     3     6    8.8768E-01  5.5980E-02   8.3170E-01  0.000E+00  0.000E+00  0.000E+00  1.06158E+03  1.036E+00  6.145E+00  1.844E-02  1.518E+00
   1    5   10     4     1    1.0000E+01  9.0919E-02   9.9091E+00  0.000E+00  0.000E+00  0.000E+00  1.07836E+03  6.368E-01  1.000E+01  2.500E-02  1.212E+00
   1    5    9     4     2    9.9091E+00  1.8158E-01   9.7275E+00  0.000E+00  0.000E+00  0.000E+00  1.07154E+03  6.315E-01  1.000E+01  5.000E-02  1.211E+00
   1    6    8     4     3    9.7275E+00  1.2689E-01   9.6006E+00  0.000E+00  0.000E+00  0.000E+00  1.06381E+03  6.256E-01  1.000E+01  3.500E-02  1.209E+00
   1    6    8     5     1    1.0432E+01  2.2686E-01   1.0205E+01  0.000E+00  0.000E+00  0.000E+00  1.05868E+03  6.790E-01  1.542E+01  6.166E-02  1.226E+00
   1    7    7     5     2    1.0205E+01  2.7894E-01   9.9265E+00  0.000E+00  0.000E+00  0.000E+00  1.05417E+03  6.732E-01  1.519E+01  7.594E-02  1.224E+00
   1    8    7     5     3    9.9265E+00  1.9221E-01   9.7343E+00  0.000E+00  0.000E+00  0.000E+00  1.04992E+03  6.676E-01  1.497E+01  5.241E-02  1.223E+00
   1    8    6     5     4    9.7343E+00  1.3577E-01   9.5985E+00  0.000E+00  0.000E+00  0.000E+00  1.04691E+03  6.637E-01  1.482E+01  3.706E-02  1.221E+00
   1    9    6     6     1    4.7062E+01  2.8689E-01   4.6775E+01  0.000E+00  0.000E+00  0.000E+00  1.04451E+03  1.781E+00  1.200E+01  6.000E-02  1.594E+00
   1   10    7     6     2    4.6775E+01  2.8650E-01   4.6489E+01  0.000E+00  0.000E+00  0.000E+00  1.03996E+03  1.775E+00  1.200E+01  6.000E-02  1.592E+00
   1   11    7     6     3    4.6489E+01  2.8610E-01   4.6202E+01  0.000E+00  0.000E+00  0.000E+00  1.03540E+03  1.768E+00  1.200E+01  6.000E-02  1.589E+00
   1   12    7     6     4    4.6202E+01  2.8571E-01   4.5917E+01  0.000E+00  0.000E+00  0.000E+00  1.03085E+03  1.762E+00  1.200E+01  6.000E-02  1.587E+00
   1   13    7     6     5    4.5917E+01  1.3927E-02   4.5903E+01  0.000E+00  0.000E+00  0.000E+00  1.02767E+03  1.758E+00  1.200E+01  2.400E-02  1.934E-01
   1   14    9     7     1    1.5000E+02  1.3378E+00   1.4866E+02  0.000E+00  0.000E+00  0.000E+00  1.03987E+03  2.288E+00  5.529E+01  5.593E-01  7.973E-01
   1   13    8     7     2    1.4866E+02  1.8275E+00   1.4683E+02  0.000E+00  0.000E+00  0.000E+00  1.03478E+03  2.279E+00  5.526E+01  6.148E-01  9.909E-01
   1   13    7     7     3    1.4683E+02  1.4535E+00   1.4538E+02  0.000E+00  0.000E+00  0.000E+00  1.02969E+03  2.271E+00  5.522E+01  5.585E-01  8.676E-01
   1   13    6     8     1    1.9128E+02  1.0025E+00   1.9028E+02  0.000E+00  0.000E+00  0.000E+00  1.02496E+03  3.083E+00  4.470E+01  4.555E-01  7.336E-01
   1   13    5     8     2    1.9028E+02  2.9955E-01   1.8998E+02  0.000E+00  0.000E+00  0.000E+00  1.01870E+03  3.079E+00  4.464E+01  4.549E-01  2.195E-01
   1   13    4     8     3    1.8998E+02 -1.7885E+00   1.9177E+02  0.000E+00  0.000E+00  0.000E+00  1.01246E+03  3.083E+00  4.471E+01  4.556E+00 -1.309E-01
   1   13    3     8     4    1.9177E+02 -3.0000E+00   1.9477E+02  0.000E+00  0.000E+00  0.000E+00  1.00622E+03  3.098E+00  4.492E+01  4.577E+00 -2.185E-01
   1   13    2     8     5    1.9477E+02 -2.4023E+00   1.9717E+02  0.000E+00  0.000E+00  0.000E+00  9.99989E+02  3.114E+00  4.515E+01  4.601E+00 -1.740E-01
   1   13    1     8     6    1.9717E+02 -1.3940E+00   1.9857E+02  0.000E+00  0.000E+00  0.000E+00  9.95000E+02  3.125E+00  4.531E+01  2.771E+00 -1.677E-01
   1    6    8     9     1    2.0000E+01  0.0000E+00   2.0000E+01  0.000E+00  0.000E+00  0.000E+00  1.07932E+03  8.168E-01  4.000E+00  0.000E+00  1.272E+00



 UBDSV3 SAVING "           GW ET" ON UNIT  61 AT TIME STEP    10, STRESS PERIOD   8
 UBDSV3 SAVING "    UZF RECHARGE" ON UNIT  61 AT TIME STEP    10, STRESS PERIOD   8
 UBDSV3 SAVING " SURFACE LEAKAGE" ON UNIT  61 AT TIME STEP    10, STRESS PERIOD   8
 UBDSV3 SAVING "       HORT+DUNN" ON UNIT  61 AT TIME STEP    10, STRESS PERIOD   8
 UBDSV3 SAVING "  STORAGE CHANGE" ON UNIT  61 AT TIME STEP    10, STRESS PERIOD   8


UNSATURATED ZONE PACKAGE VOLUMETRIC BUDGET FOR  TIME STEP    10 STRESS PERIOD    8
  ------------------------------------------------------------------------------



     CUMULATIVE VOLUMES      L**3       RATES FOR THIS TIME STEP      L**3/T
     ------------------                 ------------------------

           IN:                                      IN:
           ---                                      ---
        INFILTRATION =    38356255.8750          INFILTRATION =           8.2710

          OUT:                                     OUT:
          ----                                     ----
              UZF ET =    14161687.1858                UZF ET =           7.1037
        UZF RECHARGE =       73224.0000          UZF RECHARGE =       0.0000E+00

            IN - OUT =    24121344.6892              IN - OUT =           1.1673

          STORAGE:                                 STORAGE:
          --------                                 --------
      STORAGE CHANGE =    24120907.6247        STORAGE CHANGE =           1.1673

 PERCENT DISCREPANCY IS DIFFERENCE BETWEEN IN-OUT MINUS CHANGE IN STORAGE
 DIVIDED BY THE AVERAGE OF IN AND OUT TIMES 100

 PERCENT DISCREPANCY =           0.00     PERCENT DISCREPANCY =           0.00






 

 AWU WELLS                PERIOD    8   STEP  10
 AWU WELL      1   LAYER   1   ROW     6   COL     4   RATE    -1.37850    
 AWU WELL      2   LAYER   1   ROW     6   COL     5   RATE    -1.37850    
 AWU WELL      3   LAYER   1   ROW     7   COL     4   RATE    -1.37850    
 AWU WELL      4   LAYER   1   ROW     7   COL     5   RATE    -1.37850    
 AWU WELL      5   LAYER   1   ROW     8   COL     4   RATE    -1.37850    
 AWU WELL      6   LAYER   1   ROW     8   COL     5   RATE    -1.37850    
 
 

 GW IRRIGATION            PERIOD    8   STEP  10
 AWU WELL      1   ROW     6   COL     4   RATE     1.37850    
 AWU WELL      2   ROW     6   COL     5   RATE     1.37850    
 AWU WELL      3   ROW     7   COL     4   RATE     1.37850    
 AWU WELL      4   ROW     7   COL     5   RATE     1.37850    
 AWU WELL      5   ROW     8   COL     4   RATE     1.37850    
 AWU WELL      6   ROW     8   COL     5   RATE     1.37850    
 
1
  VOLUMETRIC BUDGET FOR ENTIRE MODEL AT END OF TIME STEP   10, STRESS PERIOD   8
  ------------------------------------------------------------------------------

     CUMULATIVE VOLUMES      L**3       RATES FOR THIS TIME STEP      L**3/T
     ------------------                 ------------------------

           IN:                                      IN:
           ---                                      ---
    AWU WELLS            =    38283032.0000      AWU WELLS            =           8.2710
    DIVERSION SEGMENTS   =           0.0000      DIVERSION SEGMENTS   =           0.0000
    GW IRRIGATION        =           0.0000      GW IRRIGATION        =           0.0000
    SW IRRIGATION        =           0.0000      SW IRRIGATION        =           0.0000
    EFFICIENCY FACTOR GW =           0.0000      EFFICIENCY FACTOR GW =           0.0000
    EFFICIENCY FACTOR SW =           0.0000      EFFICIENCY FACTOR SW =           0.0000

                TOTAL IN =    38283032.0000                  TOTAL IN =           8.2710

          OUT:                                     OUT:
          ----                                     ----
    AWU WELLS            =           0.0000      AWU WELLS            =           0.0000
    DIVERSION SEGMENTS   =           0.0000      DIVERSION SEGMENTS   =           0.0000
    GW IRRIGATION        =    38283032.0000      GW IRRIGATION        =           8.2710
    SW IRRIGATION        =           0.0000      SW IRRIGATION        =           0.0000
    EFFICIENCY FACTOR GW =           0.0000      EFFICIENCY FACTOR GW =           0.0000
    EFFICIENCY FACTOR SW =           0.0000      EFFICIENCY FACTOR SW =           0.0000

               TOTAL OUT =    38283032.0000                 TOTAL OUT =           8.2710

                IN - OUT =           0.0000                  IN - OUT =           0.0000

     PERCENT DISCREPANCY =           0.00         PERCENT DISCREPANCY =           0.00



1
  VOLUMETRIC BUDGET FOR ENTIRE MODEL AT END OF TIME STEP   10, STRESS PERIOD   8
  ------------------------------------------------------------------------------

     CUMULATIVE VOLUMES      L**3       RATES FOR THIS TIME STEP      L**3/T
     ------------------                 ------------------------

           IN:                                      IN:
           ---                                      ---
             STORAGE     =    50980360.0000               STORAGE     =          12.9969
       CONSTANT HEAD     =           0.0000         CONSTANT HEAD     =           0.0000
     HEAD DEP BOUNDS     =     4782404.5000       HEAD DEP BOUNDS     =           0.2859
      STREAM LEAKAGE     =   206602736.0000        STREAM LEAKAGE     =          13.0181
        UZF RECHARGE     =       73223.9531          UZF RECHARGE     =           0.0000
               GW ET     =           0.0000                 GW ET     =           0.0000
     SURFACE LEAKAGE     =           0.0000       SURFACE LEAKAGE     =           0.0000
    AWU WELLS            =           0.0000      AWU WELLS            =           0.0000

                TOTAL IN =   262438720.0000                  TOTAL IN =          26.3008

          OUT:                                     OUT:
          ----                                     ----
             STORAGE     =    34412424.0000               STORAGE     =           1.1073
       CONSTANT HEAD     =           0.0000         CONSTANT HEAD     =           0.0000
     HEAD DEP BOUNDS     =     4852889.5000       HEAD DEP BOUNDS     =           0.2851
      STREAM LEAKAGE     =   165151216.0000        STREAM LEAKAGE     =           8.5849
        UZF RECHARGE     =           0.0000          UZF RECHARGE     =           0.0000
               GW ET     =    19743236.0000                 GW ET     =           8.0530
     SURFACE LEAKAGE     =           0.0000       SURFACE LEAKAGE     =           0.0000
    AWU WELLS            =    38283032.0000      AWU WELLS            =           8.2710

               TOTAL OUT =   262442784.0000                 TOTAL OUT =          26.3014

                IN - OUT =       -4064.0000                  IN - OUT =      -5.9128E-04

     PERCENT DISCREPANCY =          -0.00         PERCENT DISCREPANCY =          -0.00






         TIME SUMMARY AT END OF TIME STEP   10 IN STRESS PERIOD    8
                    SECONDS     MINUTES      HOURS       DAYS        YEARS
                    -----------------------------------------------------------
   TIME STEP LENGTH  87600.      1460.0      24.333      1.0139     2.77588E-03
 STRESS PERIOD TIME 8.76000E+05  14600.      243.33      10.139     2.77588E-02
         TOTAL TIME 1.67304E+07 2.78840E+05  4647.3      193.64     0.53015    
1
 
 SOLVING FOR HEAD 
                                                   Max.-Head-Change                         Max.-Flux-Residual
  Residual-Control   Outer-Iter.   Inner-Iter.     Column Row Layer    Maximum-Head-Change  Column Row Layer    Maximum-Flux-Residual          L2-NORM 
          0                 1           2             4    7     1      -0.1783171983E-01       1   13    1        -0.9370765861E+00      0.2910474830E+01
          0                 2           2             4    7     1       0.1766956106E-02       4    7    1         0.9354355384E-01      0.2877722140E+00
          0                 3           2             4    7     1      -0.1575817574E-03       4    7    1        -0.8418924238E-02      0.2559197181E-01
          0                 4           1             4    7     1       0.1250776475E-04       4    7    1         0.6743559707E-03      0.2024362052E-02

    ------------------------------------------------
       NWT REQUIRED            4 OUTER ITERATIONS 
       AND A TOTAL OF          7 INNER ITERATIONS.
    ------------------------------------------------

 NO OUTPUT CONTROL FOR STRESS PERIOD    8   TIME STEP   11
 
 SOLVING FOR HEAD 
                                                   Max.-Head-Change                         Max.-Flux-Residual
  Residual-Control   Outer-Iter.   Inner-Iter.     Column Row Layer    Maximum-Head-Change  Column Row Layer    Maximum-Flux-Residual          L2-NORM 
          0                 1           2             4    7     1      -0.1755046028E-01       4    7    1        -0.9208275108E+00      0.2796307590E+01
          0                 2           2             4    7     1       0.1739085898E-02       4    7    1         0.9208241341E-01      0.2767126620E+00
          0                 3           2             4    7     1      -0.1550962198E-03       4    7    1        -0.8287421541E-02      0.2462977030E-01
          0                 4           1             4    7     1       0.1231048015E-04       4    7    1         0.6638226232E-03      0.1949517160E-02

    ------------------------------------------------
       NWT REQUIRED            4 OUTER ITERATIONS 
       AND A TOTAL OF          7 INNER ITERATIONS.
    ------------------------------------------------

 NO OUTPUT CONTROL FOR STRESS PERIOD    8   TIME STEP   12
 
 SOLVING FOR HEAD 
                                                   Max.-Head-Change                         Max.-Flux-Residual
  Residual-Control   Outer-Iter.   Inner-Iter.     Column Row Layer    Maximum-Head-Change  Column Row Layer    Maximum-Flux-Residual          L2-NORM 
          0                 1           2             4    7     1      -0.1728876968E-01       4    7    1        -0.9072220682E+00      0.2694004016E+01
          0                 2           2             4    7     1       0.1713154797E-02       4    7    1         0.9072187268E-01      0.2668049021E+00
          0                 3           2             4    7     1      -0.1527836168E-03       4    7    1        -0.8164972836E-02      0.2376882905E-01
          0                 4           1             4    7     1       0.1212692119E-04       4    7    1         0.6540144700E-03      0.1883657413E-02

    ------------------------------------------------
       NWT REQUIRED            4 OUTER ITERATIONS 
       AND A TOTAL OF          7 INNER ITERATIONS.
    ------------------------------------------------

 NO OUTPUT CONTROL FOR STRESS PERIOD    8   TIME STEP   13
 
 SOLVING FOR HEAD 
                                                   Max.-Head-Change                         Max.-Flux-Residual
  Residual-Control   Outer-Iter.   Inner-Iter.     Column Row Layer    Maximum-Head-Change  Column Row Layer    Maximum-Flux-Residual          L2-NORM 
          0                 1           2             4    7     1      -0.1704466807E-01       4    7    1        -0.8945224351E+00      0.2602244958E+01
          0                 2           2             4    7     1       0.1688966607E-02       4    7    1         0.8945191304E-01      0.2579191015E+00
          0                 3           2             4    7     1      -0.1506264510E-03       4    7    1        -0.8050676419E-02      0.2299628555E-01
          0                 4           1             4    7     1       0.1195570022E-04       4    7    1         0.6448593201E-03      0.1824430795E-02

    ------------------------------------------------
       NWT REQUIRED            4 OUTER ITERATIONS 
       AND A TOTAL OF          7 INNER ITERATIONS.
    ------------------------------------------------

 NO OUTPUT CONTROL FOR STRESS PERIOD    8   TIME STEP   14
 
 SOLVING FOR HEAD 
                                                   Max.-Head-Change                         Max.-Flux-Residual
  Residual-Control   Outer-Iter.   Inner-Iter.     Column Row Layer    Maximum-Head-Change  Column Row Layer    Maximum-Flux-Residual          L2-NORM 
          0                 1           2             4    7     1      -0.1681565811E-01       4    7    1        -0.8825983633E+00      0.2248637885E+01
          0                 2           2             4    7     1       0.1666273865E-02       4    7    1         0.8825950970E-01      0.2242447393E+00
          0                 3           2             4    7     1      -0.1486026530E-03       4    7    1        -0.7943360068E-02      0.2012458376E-01
          0                 4           1             4    7     1       0.1179506483E-04       4    7    1         0.6362632853E-03      0.1607550225E-02

    ------------------------------------------------
       NWT REQUIRED            4 OUTER ITERATIONS 
       AND A TOTAL OF          7 INNER ITERATIONS.
    ------------------------------------------------

 OUTPUT CONTROL FOR STRESS PERIOD    8   TIME STEP   15
    PRINT BUDGET
    SAVE BUDGET
 UBDSV1 SAVING "         STORAGE" ON UNIT 102 AT TIME STEP    15, STRESS PERIOD   8
 UBDSV2 SAVING "   CONSTANT HEAD" ON UNIT 102 AT TIME STEP    15, STRESS PERIOD   8
 UBDSV1 SAVING "FLOW RIGHT FACE " ON UNIT 102 AT TIME STEP    15, STRESS PERIOD   8
 UBDSV1 SAVING "FLOW FRONT FACE " ON UNIT 102 AT TIME STEP    15, STRESS PERIOD   8

  HEAD DEP BOUNDS   PERIOD    8   STEP    15
 BOUNDARY      1   LAYER   1   ROW    13   COL     1   RATE   -0.282595    
 BOUNDARY      2   LAYER   1   ROW    14   COL     9   RATE    0.285897    



 STREAM LISTING     PERIOD      8   STEP       15

 LAYER ROW COL. STREAM  RCH.  FLOW INTO     FLOW TO   FLOW OUT OF   OVRLND.     DIRECT     STREAM       STREAM     STREAM     STREAM   STREAMBED  STREAMBED
                SEG.NO.  NO.  STRM. RCH.    AQUIFER    STRM. RCH.    RUNOFF     PRECIP       ET          HEAD       DEPTH      WIDTH   CONDCTNC.   GRADIENT

   1    1    1     1     1    6.3000E+01  3.8236E-01   6.2618E+01  0.000E+00  0.000E+00  0.000E+00  1.09461E+03  1.562E+00  1.863E+01  8.382E-02  1.521E+00
   1    2    2     1     2    6.2618E+01  5.9218E-01   6.2025E+01  0.000E+00  0.000E+00  0.000E+00  1.08961E+03  1.556E+00  1.857E+01  1.300E-01  1.519E+00
   1    3    3     1     3    6.2025E+01  5.0506E-01   6.1520E+01  0.000E+00  0.000E+00  0.000E+00  1.08397E+03  1.549E+00  1.850E+01  1.110E-01  1.516E+00
   1    3    4     1     4    6.1520E+01  4.6510E-01   6.1055E+01  0.000E+00  0.000E+00  0.000E+00  1.07895E+03  1.543E+00  1.845E+01  1.024E-01  1.514E+00
   1    4    5     2     1    5.9055E+01  3.9145E-01   5.8664E+01  0.000E+00  0.000E+00  0.000E+00  1.07395E+03  2.019E+00  1.200E+01  7.800E-02  1.673E+00
   1    5    6     2     2    5.8664E+01  3.0068E-01   5.8363E+01  0.000E+00  0.000E+00  0.000E+00  1.06852E+03  2.011E+00  1.200E+01  6.000E-02  1.670E+00
   1    6    6     2     3    5.8363E+01  3.0031E-01   5.8063E+01  0.000E+00  0.000E+00  0.000E+00  1.06380E+03  2.005E+00  1.200E+01  6.000E-02  1.668E+00
   1    7    6     2     4    5.8063E+01  2.9994E-01   5.7763E+01  0.000E+00  0.000E+00  0.000E+00  1.05907E+03  1.999E+00  1.200E+01  6.000E-02  1.666E+00
   1    8    6     2     5    5.7763E+01  2.9957E-01   5.7463E+01  0.000E+00  0.000E+00  0.000E+00  1.05435E+03  1.993E+00  1.200E+01  6.000E-02  1.664E+00
   1    3    5     3     1    2.0000E+00  2.8252E-01   1.7175E+00  0.000E+00  0.000E+00  0.000E+00  1.07555E+03  1.909E+00  9.636E+00  7.227E-02  1.955E+00
   1    3    6     3     2    1.7175E+00  2.4905E-01   1.4684E+00  0.000E+00  0.000E+00  0.000E+00  1.07264E+03  1.727E+00  8.909E+00  6.682E-02  1.864E+00
   1    3    7     3     3    1.4684E+00  1.9718E-01   1.2712E+00  0.000E+00  0.000E+00  0.000E+00  1.06987E+03  1.555E+00  8.218E+00  5.547E-02  1.777E+00
   1    4    8     3     4    1.2712E+00  2.2567E-01   1.0456E+00  0.000E+00  0.000E+00  0.000E+00  1.06682E+03  1.364E+00  7.455E+00  6.709E-02  1.682E+00
   1    5    8     3     5    1.0456E+00  1.5790E-01   8.8768E-01  0.000E+00  0.000E+00  0.000E+00  1.06362E+03  1.164E+00  6.655E+00  4.991E-02  1.582E+00
   1    6    8     3     6    8.8768E-01  5.5980E-02   8.3170E-01  0.000E+00  0.000E+00  0.000E+00  1.06158E+03  1.036E+00  6.145E+00  1.844E-02  1.518E+00
   1    5   10     4     1    1.0000E+01  9.0919E-02   9.9091E+00  0.000E+00  0.000E+00  0.000E+00  1.07836E+03  6.368E-01  1.000E+01  2.500E-02  1.212E+00
   1    5    9     4     2    9.9091E+00  1.8158E-01   9.7275E+00  0.000E+00  0.000E+00  0.000E+00  1.07154E+03  6.315E-01  1.000E+01  5.000E-02  1.211E+00
   1    6    8     4     3    9.7275E+00  1.2689E-01   9.6006E+00  0.000E+00  0.000E+00  0.000E+00  1.06381E+03  6.256E-01  1.000E+01  3.500E-02  1.209E+00
   1    6    8     5     1    1.0432E+01  2.2686E-01   1.0205E+01  0.000E+00  0.000E+00  0.000E+00  1.05868E+03  6.790E-01  1.542E+01  6.166E-02  1.226E+00
   1    7    7     5     2    1.0205E+01  2.7894E-01   9.9265E+00  0.000E+00  0.000E+00  0.000E+00  1.05417E+03  6.732E-01  1.519E+01  7.594E-02  1.224E+00
   1    8    7     5     3    9.9265E+00  1.9221E-01   9.7343E+00  0.000E+00  0.000E+00  0.000E+00  1.04992E+03  6.676E-01  1.497E+01  5.241E-02  1.223E+00
   1    8    6     5     4    9.7343E+00  1.3577E-01   9.5985E+00  0.000E+00  0.000E+00  0.000E+00  1.04691E+03  6.637E-01  1.482E+01  3.706E-02  1.221E+00
   1    9    6     6     1    6.2678E+01  3.0699E-01   6.2371E+01  0.000E+00  0.000E+00  0.000E+00  1.04484E+03  2.116E+00  1.200E+01  6.000E-02  1.705E+00
   1   10    7     6     2    6.2371E+01  3.0661E-01   6.2065E+01  0.000E+00  0.000E+00  0.000E+00  1.04029E+03  2.110E+00  1.200E+01  6.000E-02  1.703E+00
   1   11    7     6     3    6.2065E+01  3.0624E-01   6.1759E+01  0.000E+00  0.000E+00  0.000E+00  1.03574E+03  2.104E+00  1.200E+01  6.000E-02  1.701E+00
   1   12    7     6     4    6.1759E+01  3.0586E-01   6.1453E+01  0.000E+00  0.000E+00  0.000E+00  1.03119E+03  2.098E+00  1.200E+01  6.000E-02  1.699E+00
   1   13    7     6     5    6.1453E+01  2.2258E-02   6.1430E+01  0.000E+00  0.000E+00  0.000E+00  1.02800E+03  2.094E+00  1.200E+01  2.400E-02  3.091E-01
   1   14    9     7     1    1.5000E+02  1.3378E+00   1.4866E+02  0.000E+00  0.000E+00  0.000E+00  1.03987E+03  2.288E+00  5.529E+01  5.593E-01  7.973E-01
   1   13    8     7     2    1.4866E+02  1.8280E+00   1.4683E+02  0.000E+00  0.000E+00  0.000E+00  1.03478E+03  2.279E+00  5.526E+01  6.148E-01  9.911E-01
   1   13    7     7     3    1.4683E+02  1.4597E+00   1.4537E+02  0.000E+00  0.000E+00  0.000E+00  1.02969E+03  2.271E+00  5.522E+01  5.585E-01  8.713E-01
   1   13    6     8     1    2.0680E+02  1.0906E+00   2.0571E+02  0.000E+00  0.000E+00  0.000E+00  1.02505E+03  3.174E+00  4.603E+01  4.690E-01  7.751E-01
   1   13    5     8     2    2.0571E+02  3.8018E-01   2.0533E+02  0.000E+00  0.000E+00  0.000E+00  1.01879E+03  3.170E+00  4.596E+01  4.684E-01  2.706E-01
   1   13    4     8     3    2.0533E+02 -1.1610E+00   2.0650E+02  0.000E+00  0.000E+00  0.000E+00  1.01255E+03  3.172E+00  4.600E+01  4.687E+00 -8.256E-02
   1   13    3     8     4    2.0650E+02 -2.4269E+00   2.0892E+02  0.000E+00  0.000E+00  0.000E+00  1.00631E+03  3.183E+00  4.615E+01  4.703E+00 -1.720E-01
   1   13    2     8     5    2.0892E+02 -1.8586E+00   2.1078E+02  0.000E+00  0.000E+00  0.000E+00  1.00007E+03  3.195E+00  4.632E+01  4.721E+00 -1.312E-01
   1   13    1     8     6    2.1078E+02 -1.0186E+00   2.1180E+02  0.000E+00  0.000E+00  0.000E+00  9.95078E+02  3.203E+00  4.644E+01  2.840E+00 -1.196E-01
   1    6    8     9     1    4.3836E+00  0.0000E+00   4.3836E+00  0.000E+00  0.000E+00  0.000E+00  1.07883E+03  3.286E-01  4.000E+00  0.000E+00  1.110E+00



 UBDSV3 SAVING "           GW ET" ON UNIT  61 AT TIME STEP    15, STRESS PERIOD   8
 UBDSV3 SAVING "    UZF RECHARGE" ON UNIT  61 AT TIME STEP    15, STRESS PERIOD   8
 UBDSV3 SAVING " SURFACE LEAKAGE" ON UNIT  61 AT TIME STEP    15, STRESS PERIOD   8
 UBDSV3 SAVING "       HORT+DUNN" ON UNIT  61 AT TIME STEP    15, STRESS PERIOD   8
 UBDSV3 SAVING "  STORAGE CHANGE" ON UNIT  61 AT TIME STEP    15, STRESS PERIOD   8


UNSATURATED ZONE PACKAGE VOLUMETRIC BUDGET FOR  TIME STEP    15 STRESS PERIOD    8
  ------------------------------------------------------------------------------



     CUMULATIVE VOLUMES      L**3       RATES FOR THIS TIME STEP      L**3/T
     ------------------                 ------------------------

           IN:                                      IN:
           ---                                      ---
        INFILTRATION =    41930321.2969          INFILTRATION =           8.1053

          OUT:                                     OUT:
          ----                                     ----
              UZF ET =    17290277.6389                UZF ET =           7.1623
        UZF RECHARGE =       73224.0000          UZF RECHARGE =       0.0000E+00

            IN - OUT =    24566819.6580              IN - OUT =           0.9430

          STORAGE:                                 STORAGE:
          --------                                 --------
      STORAGE CHANGE =    24566382.6225        STORAGE CHANGE =           0.9430

 PERCENT DISCREPANCY IS DIFFERENCE BETWEEN IN-OUT MINUS CHANGE IN STORAGE
 DIVIDED BY THE AVERAGE OF IN AND OUT TIMES 100

 PERCENT DISCREPANCY =           0.00     PERCENT DISCREPANCY =           0.00






 

 AWU WELLS                PERIOD    8   STEP  15
 AWU WELL      1   LAYER   1   ROW     6   COL     4   RATE    -1.35089    
 AWU WELL      2   LAYER   1   ROW     6   COL     5   RATE    -1.35089    
 AWU WELL      3   LAYER   1   ROW     7   COL     4   RATE    -1.35089    
 AWU WELL      4   LAYER   1   ROW     7   COL     5   RATE    -1.35089    
 AWU WELL      5   LAYER   1   ROW     8   COL     4   RATE    -1.35089    
 AWU WELL      6   LAYER   1   ROW     8   COL     5   RATE    -1.35089    
 
 

 GW IRRIGATION            PERIOD    8   STEP  15
 AWU WELL      1   ROW     6   COL     4   RATE     1.35089    
 AWU WELL      2   ROW     6   COL     5   RATE     1.35089    
 AWU WELL      3   ROW     7   COL     4   RATE     1.35089    
 AWU WELL      4   ROW     7   COL     5   RATE     1.35089    
 AWU WELL      5   ROW     8   COL     4   RATE     1.35089    
 AWU WELL      6   ROW     8   COL     5   RATE     1.35089    
 
1
  VOLUMETRIC BUDGET FOR ENTIRE MODEL AT END OF TIME STEP   15, STRESS PERIOD   8
  ------------------------------------------------------------------------------

     CUMULATIVE VOLUMES      L**3       RATES FOR THIS TIME STEP      L**3/T
     ------------------                 ------------------------

           IN:                                      IN:
           ---                                      ---
    AWU WELLS            =    41857096.0000      AWU WELLS            =           8.1053
    DIVERSION SEGMENTS   =           0.0000      DIVERSION SEGMENTS   =           0.0000
    GW IRRIGATION        =           0.0000      GW IRRIGATION        =           0.0000
    SW IRRIGATION        =           0.0000      SW IRRIGATION        =           0.0000
    EFFICIENCY FACTOR GW =           0.0000      EFFICIENCY FACTOR GW =           0.0000
    EFFICIENCY FACTOR SW =           0.0000      EFFICIENCY FACTOR SW =           0.0000

                TOTAL IN =    41857096.0000                  TOTAL IN =           8.1053

          OUT:                                     OUT:
          ----                                     ----
    AWU WELLS            =           0.0000      AWU WELLS            =           0.0000
    DIVERSION SEGMENTS   =           0.0000      DIVERSION SEGMENTS   =           0.0000
    GW IRRIGATION        =    41857096.0000      GW IRRIGATION        =           8.1053
    SW IRRIGATION        =           0.0000      SW IRRIGATION        =           0.0000
    EFFICIENCY FACTOR GW =           0.0000      EFFICIENCY FACTOR GW =           0.0000
    EFFICIENCY FACTOR SW =           0.0000      EFFICIENCY FACTOR SW =           0.0000

               TOTAL OUT =    41857096.0000                 TOTAL OUT =           8.1053

                IN - OUT =           0.0000                  IN - OUT =           0.0000

     PERCENT DISCREPANCY =           0.00         PERCENT DISCREPANCY =           0.00



1
  VOLUMETRIC BUDGET FOR ENTIRE MODEL AT END OF TIME STEP   15, STRESS PERIOD   8
  ------------------------------------------------------------------------------

     CUMULATIVE VOLUMES      L**3       RATES FOR THIS TIME STEP      L**3/T
     ------------------                 ------------------------

           IN:                                      IN:
           ---                                      ---
             STORAGE     =    56180364.0000               STORAGE     =          10.3004
       CONSTANT HEAD     =           0.0000         CONSTANT HEAD     =           0.0000
     HEAD DEP BOUNDS     =     4907627.0000       HEAD DEP BOUNDS     =           0.2859
      STREAM LEAKAGE     =   212336992.0000        STREAM LEAKAGE     =          13.2824
        UZF RECHARGE     =       73223.9531          UZF RECHARGE     =           0.0000
               GW ET     =           0.0000                 GW ET     =           0.0000
     SURFACE LEAKAGE     =           0.0000       SURFACE LEAKAGE     =           0.0000
    AWU WELLS            =           0.0000      AWU WELLS            =           0.0000

                TOTAL IN =   273498208.0000                  TOTAL IN =          23.8686

          OUT:                                     OUT:
          ----                                     ----
             STORAGE     =    34889868.0000               STORAGE     =           1.0953
       CONSTANT HEAD     =           0.0000         CONSTANT HEAD     =           0.0000
     HEAD DEP BOUNDS     =     4977061.0000       HEAD DEP BOUNDS     =           0.2826
      STREAM LEAKAGE     =   168545904.0000        STREAM LEAKAGE     =           6.4651
        UZF RECHARGE     =           0.0000          UZF RECHARGE     =           0.0000
               GW ET     =    23232580.0000                 GW ET     =           7.9208
     SURFACE LEAKAGE     =           0.0000       SURFACE LEAKAGE     =           0.0000
    AWU WELLS            =    41857096.0000      AWU WELLS            =           8.1053

               TOTAL OUT =   273502496.0000                 TOTAL OUT =          23.8691

                IN - OUT =       -4288.0000                  IN - OUT =      -4.5967E-04

     PERCENT DISCREPANCY =          -0.00         PERCENT DISCREPANCY =          -0.00






         TIME SUMMARY AT END OF TIME STEP   15 IN STRESS PERIOD    8
                    SECONDS     MINUTES      HOURS       DAYS        YEARS
                    -----------------------------------------------------------
   TIME STEP LENGTH  87600.      1460.0      24.333      1.0139     2.77588E-03
 STRESS PERIOD TIME 1.31400E+06  21900.      365.00      15.208     4.16381E-02
         TOTAL TIME 1.71684E+07 2.86140E+05  4769.0      198.71     0.54403    
1
 
 SOLVING FOR HEAD 
                                                   Max.-Head-Change                         Max.-Flux-Residual
  Residual-Control   Outer-Iter.   Inner-Iter.     Column Row Layer    Maximum-Head-Change  Column Row Layer    Maximum-Flux-Residual          L2-NORM 
          0                 1           2             4    7     1      -0.1659975621E-01       4    7    1        -0.8713479550E+00      0.2159283934E+01
          0                 2           2             4    7     1       0.1644880012E-02       4    7    1         0.8713447282E-01      0.2156427827E+00
          0                 3           2             4    7     1      -0.1466946932E-03       4    7    1        -0.7842106679E-02      0.1938123281E-01
          0                 4           1             4    7     1       0.1164362423E-04       4    7    1         0.6281528917E-03      0.1550385221E-02

    ------------------------------------------------
       NWT REQUIRED            4 OUTER ITERATIONS 
       AND A TOTAL OF          7 INNER ITERATIONS.
    ------------------------------------------------

 NO OUTPUT CONTROL FOR STRESS PERIOD    8   TIME STEP   16
 
 SOLVING FOR HEAD 
                                                   Max.-Head-Change                         Max.-Flux-Residual
  Residual-Control   Outer-Iter.   Inner-Iter.     Column Row Layer    Maximum-Head-Change  Column Row Layer    Maximum-Flux-Residual          L2-NORM 
          0                 1           2             4    7     1      -0.1639549101E-01       4    7    1        -0.8606958483E+00      0.2123546797E+01
          0                 2           2             4    7     1       0.1624639253E-02       4    7    1         0.8606926617E-01      0.2120958468E+00
          0                 3           2             4    7     1      -0.1448895697E-03       4    7    1        -0.7746238048E-02      0.1906474385E-01
          0                 4           1             4    7     1       0.1150034585E-04       4    7    1         0.6204738156E-03      0.1525082240E-02

    ------------------------------------------------
       NWT REQUIRED            4 OUTER ITERATIONS 
       AND A TOTAL OF          7 INNER ITERATIONS.
    ------------------------------------------------

 NO OUTPUT CONTROL FOR STRESS PERIOD    8   TIME STEP   17
 
 SOLVING FOR HEAD 
                                                   Max.-Head-Change                         Max.-Flux-Residual
  Residual-Control   Outer-Iter.   Inner-Iter.     Column Row Layer    Maximum-Head-Change  Column Row Layer    Maximum-Flux-Residual          L2-NORM 
          0                 1           2             4    7     1      -0.1620102277E-01       4    7    1        -0.8505459689E+00      0.2090556955E+01
          0                 2           2             4    7     1       0.1605369284E-02       4    7    1         0.8505428238E-01      0.2088211183E+00
          0                 3           2             4    7     1      -0.1431710235E-03       4    7    1        -0.7654889448E-02      0.1877220608E-01
          0                 4           1             4    7     1       0.1136393917E-04       4    7    1         0.6131567807E-03      0.1501962677E-02

    ------------------------------------------------
       NWT REQUIRED            4 OUTER ITERATIONS 
       AND A TOTAL OF          7 INNER ITERATIONS.
    ------------------------------------------------

 NO OUTPUT CONTROL FOR STRESS PERIOD    8   TIME STEP   18
 
 SOLVING FOR HEAD 
                                                   Max.-Head-Change                         Max.-Flux-Residual
  Residual-Control   Outer-Iter.   Inner-Iter.     Column Row Layer    Maximum-Head-Change  Column Row Layer    Maximum-Flux-Residual          L2-NORM 
          0                 1           2             4    7     1      -0.1601528885E-01       4    7    1        -0.8408447528E+00      0.2059994412E+01
          0                 2           2             4    7     1       0.1586964808E-02       4    7    1         0.8408416497E-01      0.2057869637E+00
          0                 3           2             4    7     1      -0.1415296643E-03       4    7    1        -0.7567578856E-02      0.1850112907E-01
          0                 4           1             4    7     1       0.1123365902E-04       4    7    1         0.6061631884E-03      0.1480452032E-02

    ------------------------------------------------
       NWT REQUIRED            4 OUTER ITERATIONS 
       AND A TOTAL OF          7 INNER ITERATIONS.
    ------------------------------------------------

 NO OUTPUT CONTROL FOR STRESS PERIOD    8   TIME STEP   19
 
 SOLVING FOR HEAD 
                                                   Max.-Head-Change                         Max.-Flux-Residual
  Residual-Control   Outer-Iter.   Inner-Iter.     Column Row Layer    Maximum-Head-Change  Column Row Layer    Maximum-Flux-Residual          L2-NORM 
          0                 1           2             4    7     1      -0.1583679267E-01       4    7    1        -0.8315141164E+00      0.2031567350E+01
          0                 2           2             4    7     1       0.1569277527E-02       4    7    1         0.8315110566E-01      0.2029641443E+00
          0                 3           2             4    7     1      -0.1399522662E-03       4    7    1        -0.7483603434E-02      0.1824900948E-01
          0                 4           1             4    7     1       0.1110845653E-04       4    7    1         0.5994367900E-03      0.1460435239E-02

    ------------------------------------------------
       NWT REQUIRED            4 OUTER ITERATIONS 
       AND A TOTAL OF          7 INNER ITERATIONS.
    ------------------------------------------------

 NO OUTPUT CONTROL FOR STRESS PERIOD    8   TIME STEP   20
 
 SOLVING FOR HEAD 
                                                   Max.-Head-Change                         Max.-Flux-Residual
  Residual-Control   Outer-Iter.   Inner-Iter.     Column Row Layer    Maximum-Head-Change  Column Row Layer    Maximum-Flux-Residual          L2-NORM 
          0                 1           2             4    7     1      -0.1566480115E-01       4    7    1        -0.8225169891E+00      0.2005072981E+01
          0                 2           2             4    7     1       0.1552234797E-02       4    7    1         0.8225139724E-01      0.2003328692E+00
          0                 3           2             4    7     1      -0.1384323504E-03       4    7    1        -0.7402629619E-02      0.1801372722E-01
          0                 4           1             4    7     1       0.1098781554E-04       4    7    1         0.5929507595E-03      0.1441522050E-02

    ------------------------------------------------
       NWT REQUIRED            4 OUTER ITERATIONS 
       AND A TOTAL OF          7 INNER ITERATIONS.
    ------------------------------------------------

 NO OUTPUT CONTROL FOR STRESS PERIOD    8   TIME STEP   21
 
 SOLVING FOR HEAD 
                                                   Max.-Head-Change                         Max.-Flux-Residual
  Residual-Control   Outer-Iter.   Inner-Iter.     Column Row Layer    Maximum-Head-Change  Column Row Layer    Maximum-Flux-Residual          L2-NORM 
          0                 1           2             4    7     1      -0.1549813134E-01       4    7    1        -0.8137913171E+00      0.2242989785E+01
          0                 2           2             4    7     1       0.1535719404E-02       4    7    1         0.8137883448E-01      0.2227008848E+00
          0                 3           2             4    7     1      -0.1369594647E-03       4    7    1        -0.7324098932E-02      0.1989341665E-01
          0                 4           1             4    7     1       0.1087090814E-04       4    7    1         0.5866604538E-03      0.1581012821E-02

    ------------------------------------------------
       NWT REQUIRED            4 OUTER ITERATIONS 
       AND A TOTAL OF          7 INNER ITERATIONS.
    ------------------------------------------------

 NO OUTPUT CONTROL FOR STRESS PERIOD    8   TIME STEP   22
 
 SOLVING FOR HEAD 
                                                   Max.-Head-Change                         Max.-Flux-Residual
  Residual-Control   Outer-Iter.   Inner-Iter.     Column Row Layer    Maximum-Head-Change  Column Row Layer    Maximum-Flux-Residual          L2-NORM 
          0                 1           2             4    7     1      -0.1533656806E-01       4    7    1        -0.8053281294E+00      0.2216351831E+01
          0                 2           2             4    7     1       0.1519710020E-02       4    7    1         0.8053252014E-01      0.2200927413E+00
          0                 3           2             4    7     1      -0.1355317054E-03       4    7    1        -0.7247930577E-02      0.1966376762E-01
          0                 4           1             4    7     1       0.1075758176E-04       4    7    1         0.5805593485E-03      0.1562811136E-02

    ------------------------------------------------
       NWT REQUIRED            4 OUTER ITERATIONS 
       AND A TOTAL OF          7 INNER ITERATIONS.
    ------------------------------------------------

 NO OUTPUT CONTROL FOR STRESS PERIOD    8   TIME STEP   23
 
 SOLVING FOR HEAD 
                                                   Max.-Head-Change                         Max.-Flux-Residual
  Residual-Control   Outer-Iter.   Inner-Iter.     Column Row Layer    Maximum-Head-Change  Column Row Layer    Maximum-Flux-Residual          L2-NORM 
          0                 1           2             4    7     1      -0.1619203423E-01       4    7    1        -0.8500022853E+00      0.2263483047E+01
          0                 2           2             4    7     1       0.1604478577E-02       4    7    1         0.8499991232E-01      0.2250524838E+00
          0                 3           2             4    7     1      -0.1430915881E-03       4    7    1        -0.7649996178E-02      0.2013382684E-01
          0                 4           1             4    7     1       0.1135763401E-04       4    7    1         0.6127648128E-03      0.1602591660E-02

    ------------------------------------------------
       NWT REQUIRED            4 OUTER ITERATIONS 
       AND A TOTAL OF          7 INNER ITERATIONS.
    ------------------------------------------------

 NO OUTPUT CONTROL FOR STRESS PERIOD    8   TIME STEP   24
 
 SOLVING FOR HEAD 
                                                   Max.-Head-Change                         Max.-Flux-Residual
  Residual-Control   Outer-Iter.   Inner-Iter.     Column Row Layer    Maximum-Head-Change  Column Row Layer    Maximum-Flux-Residual          L2-NORM 
          0                 1           2             4    7     1      -0.1712783213E-01       4    7    1        -0.8988950774E+00      0.2327761342E+01
          0                 2           2             4    7     1       0.1697207222E-02       4    7    1         0.8988916448E-01      0.2316927841E+00
          0                 3           2             4    7     1      -0.1513613719E-03       4    7    1        -0.8090029176E-02      0.2075131377E-01
          0                 4           1             4    7     1       0.1201403309E-04       4    7    1         0.6480114723E-03      0.1642051742E-02

    ------------------------------------------------
       NWT REQUIRED            4 OUTER ITERATIONS 
       AND A TOTAL OF          7 INNER ITERATIONS.
    ------------------------------------------------

 NO OUTPUT CONTROL FOR STRESS PERIOD    8   TIME STEP   25
 
 SOLVING FOR HEAD 
                                                   Max.-Head-Change                         Max.-Flux-Residual
  Residual-Control   Outer-Iter.   Inner-Iter.     Column Row Layer    Maximum-Head-Change  Column Row Layer    Maximum-Flux-Residual          L2-NORM 
          0                 1           2             4    7     1      -0.1638817735E-01       4    7    1        -0.8602613634E+00      0.2225559209E+01
          0                 2           2             4    7     1       0.1623914464E-02       4    7    1         0.8602581278E-01      0.2215806391E+00
          0                 3           2             4    7     1      -0.1448249319E-03       4    7    1        -0.7742327286E-02      0.1985222015E-01
          0                 4           1             4    7     1       0.1149521514E-04       4    7    1         0.6201605481E-03      0.1583690210E-02

    ------------------------------------------------
       NWT REQUIRED            4 OUTER ITERATIONS 
       AND A TOTAL OF          7 INNER ITERATIONS.
    ------------------------------------------------

 NO OUTPUT CONTROL FOR STRESS PERIOD    8   TIME STEP   26
 
 SOLVING FOR HEAD 
                                                   Max.-Head-Change                         Max.-Flux-Residual
  Residual-Control   Outer-Iter.   Inner-Iter.     Column Row Layer    Maximum-Head-Change  Column Row Layer    Maximum-Flux-Residual          L2-NORM 
          0                 1           2             4    7     1      -0.1567501979E-01       4    7    1        -0.8229909623E+00      0.2130176745E+01
          0                 2           2             4    7     1       0.1553247338E-02       4    7    1         0.8229879219E-01      0.2121389185E+00
          0                 3           2             4    7     1      -0.1385226520E-03       4    7    1        -0.7406895210E-02      0.1901046581E-01
          0                 4           1             4    7     1       0.1099498291E-04       4    7    1         0.5932924221E-03      0.1515845713E-02

    ------------------------------------------------
       NWT REQUIRED            4 OUTER ITERATIONS 
       AND A TOTAL OF          7 INNER ITERATIONS.
    ------------------------------------------------

 NO OUTPUT CONTROL FOR STRESS PERIOD    8   TIME STEP   27
 
 SOLVING FOR HEAD 
                                                   Max.-Head-Change                         Max.-Flux-Residual
  Residual-Control   Outer-Iter.   Inner-Iter.     Column Row Layer    Maximum-Head-Change  Column Row Layer    Maximum-Flux-Residual          L2-NORM 
          0                 1           2             4    7     1      -0.1501656480E-01       4    7    1        -0.7885596191E+00      0.2020030770E+01
          0                 2           2             4    7     1       0.1488000719E-02       4    7    1         0.7885567621E-01      0.2013441752E+00
          0                 3           2             4    7     1      -0.1327037877E-03       4    7    1        -0.7097014567E-02      0.1806009935E-01
          0                 4           1             4    7     1       0.1053312115E-04       4    7    1         0.5684709824E-03      0.1442138194E-02

    ------------------------------------------------
       NWT REQUIRED            4 OUTER ITERATIONS 
       AND A TOTAL OF          7 INNER ITERATIONS.
    ------------------------------------------------

 NO OUTPUT CONTROL FOR STRESS PERIOD    8   TIME STEP   28
 
 SOLVING FOR HEAD 
                                                   Max.-Head-Change                         Max.-Flux-Residual
  Residual-Control   Outer-Iter.   Inner-Iter.     Column Row Layer    Maximum-Head-Change  Column Row Layer    Maximum-Flux-Residual          L2-NORM 
          0                 1           2             4    7     1      -0.1438097740E-01       4    7    1        -0.7553067709E+00      0.1845360396E+01
          0                 2           2             4    7     1       0.1425020063E-02       4    7    1         0.7553040935E-01      0.1844883256E+00
          0                 3           2             4    7     1      -0.1270870069E-03       4    7    1        -0.6797740303E-02      0.1659964712E-01
          0                 4           1             4    7     1       0.1008729984E-04       4    7    1         0.5444991245E-03      0.1329374211E-02

    ------------------------------------------------
       NWT REQUIRED            4 OUTER ITERATIONS 
       AND A TOTAL OF          7 INNER ITERATIONS.
    ------------------------------------------------

 NO OUTPUT CONTROL FOR STRESS PERIOD    8   TIME STEP   29
 
 SOLVING FOR HEAD 
                                                   Max.-Head-Change                         Max.-Flux-Residual
  Residual-Control   Outer-Iter.   Inner-Iter.     Column Row Layer    Maximum-Head-Change  Column Row Layer    Maximum-Flux-Residual          L2-NORM 
          0                 1           2             4    7     1      -0.1398277267E-01       4    7    1        -0.7344345031E+00      0.2029286197E+01
          0                 2           2             4    7     1       0.1385561779E-02       4    7    1         0.7344319454E-01      0.2016131827E+00
          0                 3           1             4    7     1      -0.1235680137E-03       4    7    1        -0.6609890833E-02      0.1802234436E-01
          0                 4           1             4    7     1       0.9807986141E-05       4    7    1         0.5294523828E-03      0.1433319212E-02

    ------------------------------------------------
       NWT REQUIRED            4 OUTER ITERATIONS 
       AND A TOTAL OF          6 INNER ITERATIONS.
    ------------------------------------------------

 NO OUTPUT CONTROL FOR STRESS PERIOD    8   TIME STEP   30



 STREAM LISTING     PERIOD      8   STEP       30

 LAYER ROW COL. STREAM  RCH.  FLOW INTO     FLOW TO   FLOW OUT OF   OVRLND.     DIRECT     STREAM       STREAM     STREAM     STREAM   STREAMBED  STREAMBED
                SEG.NO.  NO.  STRM. RCH.    AQUIFER    STRM. RCH.    RUNOFF     PRECIP       ET          HEAD       DEPTH      WIDTH   CONDCTNC.   GRADIENT

   1    1    1     1     1    3.6662E+01  2.9230E-01   3.6370E+01  0.000E+00  0.000E+00  0.000E+00  1.09435E+03  1.306E+00  1.509E+01  6.789E-02  1.435E+00
   1    2    2     1     2    3.6370E+01  4.5261E-01   3.5917E+01  0.000E+00  0.000E+00  0.000E+00  1.08936E+03  1.303E+00  1.503E+01  1.052E-01  1.434E+00
   1    3    3     1     3    3.5917E+01  3.8593E-01   3.5531E+01  0.000E+00  0.000E+00  0.000E+00  1.08372E+03  1.299E+00  1.496E+01  8.976E-02  1.433E+00
   1    3    4     1     4    3.5531E+01  3.5533E-01   3.5176E+01  0.000E+00  0.000E+00  0.000E+00  1.07870E+03  1.296E+00  1.490E+01  8.270E-02  1.432E+00
   1    4    5     2     1    3.3176E+01  3.4527E-01   3.2831E+01  0.000E+00  0.000E+00  0.000E+00  1.07336E+03  1.427E+00  1.200E+01  7.800E-02  1.476E+00
   1    5    6     2     2    3.2831E+01  2.6512E-01   3.2566E+01  0.000E+00  0.000E+00  0.000E+00  1.06793E+03  1.419E+00  1.200E+01  6.000E-02  1.473E+00
   1    6    6     2     3    3.2566E+01  2.6470E-01   3.2301E+01  0.000E+00  0.000E+00  0.000E+00  1.06320E+03  1.412E+00  1.200E+01  6.000E-02  1.471E+00
   1    7    6     2     4    3.2301E+01  2.6429E-01   3.2037E+01  0.000E+00  0.000E+00  0.000E+00  1.05848E+03  1.405E+00  1.200E+01  6.000E-02  1.468E+00
   1    8    6     2     5    3.2037E+01  2.6387E-01   3.1773E+01  0.000E+00  0.000E+00  0.000E+00  1.05376E+03  1.398E+00  1.200E+01  6.000E-02  1.466E+00
   1    3    5     3     1    2.0000E+00  2.8252E-01   1.7175E+00  0.000E+00  0.000E+00  0.000E+00  1.07555E+03  1.909E+00  9.636E+00  7.227E-02  1.955E+00
   1    3    6     3     2    1.7175E+00  2.4905E-01   1.4684E+00  0.000E+00  0.000E+00  0.000E+00  1.07264E+03  1.727E+00  8.909E+00  6.682E-02  1.864E+00
   1    3    7     3     3    1.4684E+00  1.9718E-01   1.2712E+00  0.000E+00  0.000E+00  0.000E+00  1.06987E+03  1.555E+00  8.218E+00  5.547E-02  1.777E+00
   1    4    8     3     4    1.2712E+00  2.2567E-01   1.0456E+00  0.000E+00  0.000E+00  0.000E+00  1.06682E+03  1.364E+00  7.455E+00  6.709E-02  1.682E+00
   1    5    8     3     5    1.0456E+00  1.5790E-01   8.8768E-01  0.000E+00  0.000E+00  0.000E+00  1.06362E+03  1.164E+00  6.655E+00  4.991E-02  1.582E+00
   1    6    8     3     6    8.8768E-01  5.5980E-02   8.3170E-01  0.000E+00  0.000E+00  0.000E+00  1.06158E+03  1.036E+00  6.145E+00  1.844E-02  1.518E+00
   1    5   10     4     1    1.0000E+01  9.0919E-02   9.9091E+00  0.000E+00  0.000E+00  0.000E+00  1.07836E+03  6.368E-01  1.000E+01  2.500E-02  1.212E+00
   1    5    9     4     2    9.9091E+00  1.8158E-01   9.7275E+00  0.000E+00  0.000E+00  0.000E+00  1.07154E+03  6.315E-01  1.000E+01  5.000E-02  1.211E+00
   1    6    8     4     3    9.7275E+00  1.2689E-01   9.6006E+00  0.000E+00  0.000E+00  0.000E+00  1.06381E+03  6.256E-01  1.000E+01  3.500E-02  1.209E+00
   1    6    8     5     1    1.0432E+01  2.2686E-01   1.0205E+01  0.000E+00  0.000E+00  0.000E+00  1.05868E+03  6.790E-01  1.542E+01  6.166E-02  1.226E+00
   1    7    7     5     2    1.0205E+01  2.7894E-01   9.9265E+00  0.000E+00  0.000E+00  0.000E+00  1.05417E+03  6.732E-01  1.519E+01  7.594E-02  1.224E+00
   1    8    7     5     3    9.9265E+00  1.9221E-01   9.7343E+00  0.000E+00  0.000E+00  0.000E+00  1.04992E+03  6.676E-01  1.497E+01  5.241E-02  1.223E+00
   1    8    6     5     4    9.7343E+00  1.3577E-01   9.5985E+00  0.000E+00  0.000E+00  0.000E+00  1.04691E+03  6.637E-01  1.482E+01  3.706E-02  1.221E+00
   1    9    6     6     1    4.1371E+01  2.7891E-01   4.1092E+01  0.000E+00  0.000E+00  0.000E+00  1.04438E+03  1.649E+00  1.200E+01  6.000E-02  1.550E+00
   1   10    7     6     2    4.1092E+01  2.7851E-01   4.0814E+01  0.000E+00  0.000E+00  0.000E+00  1.03982E+03  1.642E+00  1.200E+01  6.000E-02  1.547E+00
   1   11    7     6     3    4.0814E+01  2.7811E-01   4.0536E+01  0.000E+00  0.000E+00  0.000E+00  1.03527E+03  1.635E+00  1.200E+01  6.000E-02  1.545E+00
   1   12    7     6     4    4.0536E+01  2.7771E-01   4.0258E+01  0.000E+00  0.000E+00  0.000E+00  1.03072E+03  1.628E+00  1.200E+01  6.000E-02  1.543E+00
   1   13    7     6     5    4.0258E+01  1.1649E-02   4.0246E+01  0.000E+00  0.000E+00  0.000E+00  1.02753E+03  1.625E+00  1.200E+01  2.400E-02  1.618E-01
   1   14    9     7     1    1.5000E+02  1.3378E+00   1.4866E+02  0.000E+00  0.000E+00  0.000E+00  1.03987E+03  2.288E+00  5.529E+01  5.593E-01  7.973E-01
   1   13    8     7     2    1.4866E+02  1.8303E+00   1.4683E+02  0.000E+00  0.000E+00  0.000E+00  1.03478E+03  2.279E+00  5.526E+01  6.148E-01  9.924E-01
   1   13    7     7     3    1.4683E+02  1.4749E+00   1.4536E+02  0.000E+00  0.000E+00  0.000E+00  1.02969E+03  2.270E+00  5.522E+01  5.585E-01  8.804E-01
   1   13    6     8     1    1.8560E+02  1.0232E+00   1.8458E+02  0.000E+00  0.000E+00  0.000E+00  1.02492E+03  3.048E+00  4.419E+01  4.504E-01  7.573E-01
   1   13    5     8     2    1.8458E+02  3.6479E-01   1.8422E+02  0.000E+00  0.000E+00  0.000E+00  1.01867E+03  3.044E+00  4.413E+01  4.497E-01  2.704E-01
   1   13    4     8     3    1.8422E+02 -1.3751E+00   1.8559E+02  0.000E+00  0.000E+00  0.000E+00  1.01242E+03  3.047E+00  4.418E+01  4.502E+00 -1.018E-01
   1   13    3     8     4    1.8559E+02 -2.6072E+00   1.8820E+02  0.000E+00  0.000E+00  0.000E+00  1.00618E+03  3.059E+00  4.436E+01  4.520E+00 -1.923E-01
   1   13    2     8     5    1.8820E+02 -2.0710E+00   1.9027E+02  0.000E+00  0.000E+00  0.000E+00  9.99948E+02  3.073E+00  4.456E+01  4.541E+00 -1.520E-01
   1   13    1     8     6    1.9027E+02 -1.0156E+00   1.9128E+02  0.000E+00  0.000E+00  0.000E+00  9.94958E+02  3.083E+00  4.470E+01  2.733E+00 -1.239E-01
   1    6    8     9     1    0.0000E+00  0.0000E+00   0.0000E+00  0.000E+00  0.000E+00  0.000E+00  1.07850E+03  0.000E+00  4.000E+00  0.000E+00  1.000E+00





UNSATURATED ZONE PACKAGE VOLUMETRIC BUDGET FOR  TIME STEP    30 STRESS PERIOD    8
  ------------------------------------------------------------------------------



     CUMULATIVE VOLUMES      L**3       RATES FOR THIS TIME STEP      L**3/T
     ------------------                 ------------------------

           IN:                                      IN:
           ---                                      ---
        INFILTRATION =    52651585.9219          INFILTRATION =           7.9352

          OUT:                                     OUT:
          ----                                     ----
              UZF ET =    26677286.4514                UZF ET =           7.2234
        UZF RECHARGE =       73224.0000          UZF RECHARGE =       0.0000E+00

            IN - OUT =    25901075.4705              IN - OUT =           0.7117

          STORAGE:                                 STORAGE:
          --------                                 --------
      STORAGE CHANGE =    25900638.4448        STORAGE CHANGE =           0.7117

 PERCENT DISCREPANCY IS DIFFERENCE BETWEEN IN-OUT MINUS CHANGE IN STORAGE
 DIVIDED BY THE AVERAGE OF IN AND OUT TIMES 100

 PERCENT DISCREPANCY =           0.00     PERCENT DISCREPANCY =           0.00






1
  VOLUMETRIC BUDGET FOR ENTIRE MODEL AT END OF TIME STEP   30, STRESS PERIOD   8
  ------------------------------------------------------------------------------

     CUMULATIVE VOLUMES      L**3       RATES FOR THIS TIME STEP      L**3/T
     ------------------                 ------------------------

           IN:                                      IN:
           ---                                      ---
    AWU WELLS            =    52578360.0000      AWU WELLS            =           7.9352
    DIVERSION SEGMENTS   =           0.0000      DIVERSION SEGMENTS   =           0.0000
    GW IRRIGATION        =           0.0000      GW IRRIGATION        =           0.0000
    SW IRRIGATION        =           0.0000      SW IRRIGATION        =           0.0000
    EFFICIENCY FACTOR GW =           0.0000      EFFICIENCY FACTOR GW =           0.0000
    EFFICIENCY FACTOR SW =           0.0000      EFFICIENCY FACTOR SW =           0.0000

                TOTAL IN =    52578360.0000                  TOTAL IN =           7.9352

          OUT:                                     OUT:
          ----                                     ----
    AWU WELLS            =           0.0000      AWU WELLS            =           0.0000
    DIVERSION SEGMENTS   =           0.0000      DIVERSION SEGMENTS   =           0.0000
    GW IRRIGATION        =    52578360.0000      GW IRRIGATION        =           7.9352
    SW IRRIGATION        =           0.0000      SW IRRIGATION        =           0.0000
    EFFICIENCY FACTOR GW =           0.0000      EFFICIENCY FACTOR GW =           0.0000
    EFFICIENCY FACTOR SW =           0.0000      EFFICIENCY FACTOR SW =           0.0000

               TOTAL OUT =    52578360.0000                 TOTAL OUT =           7.9352

                IN - OUT =           0.0000                  IN - OUT =           0.0000

     PERCENT DISCREPANCY =           0.00         PERCENT DISCREPANCY =           0.00



1
  VOLUMETRIC BUDGET FOR ENTIRE MODEL AT END OF TIME STEP   30, STRESS PERIOD   8
  ------------------------------------------------------------------------------

     CUMULATIVE VOLUMES      L**3       RATES FOR THIS TIME STEP      L**3/T
     ------------------                 ------------------------

           IN:                                      IN:
           ---                                      ---
             STORAGE     =    69648768.0000               STORAGE     =          10.8713
       CONSTANT HEAD     =           0.0000         CONSTANT HEAD     =           0.0000
     HEAD DEP BOUNDS     =     5283294.5000       HEAD DEP BOUNDS     =           0.2859
      STREAM LEAKAGE     =   229694240.0000        STREAM LEAKAGE     =          12.4468
        UZF RECHARGE     =       73223.9531          UZF RECHARGE     =           0.0000
               GW ET     =           0.0000                 GW ET     =           0.0000
     SURFACE LEAKAGE     =           0.0000       SURFACE LEAKAGE     =           0.0000
    AWU WELLS            =           0.0000      AWU WELLS            =           0.0000

                TOTAL IN =   304699520.0000                  TOTAL IN =          23.6039

          OUT:                                     OUT:
          ----                                     ----
             STORAGE     =    36283044.0000               STORAGE     =           0.6103
       CONSTANT HEAD     =           0.0000         CONSTANT HEAD     =           0.0000
     HEAD DEP BOUNDS     =     5345481.0000       HEAD DEP BOUNDS     =           0.2785
      STREAM LEAKAGE     =   177000176.0000        STREAM LEAKAGE     =           7.0690
        UZF RECHARGE     =           0.0000          UZF RECHARGE     =           0.0000
               GW ET     =    33497440.0000                 GW ET     =           7.7115
     SURFACE LEAKAGE     =           0.0000       SURFACE LEAKAGE     =           0.0000
    AWU WELLS            =    52578360.0000      AWU WELLS            =           7.9352

               TOTAL OUT =   304704512.0000                 TOTAL OUT =          23.6044

                IN - OUT =       -4992.0000                  IN - OUT =      -5.1498E-04

     PERCENT DISCREPANCY =          -0.00         PERCENT DISCREPANCY =          -0.00






         TIME SUMMARY AT END OF TIME STEP   30 IN STRESS PERIOD    8
                    SECONDS     MINUTES      HOURS       DAYS        YEARS
                    -----------------------------------------------------------
   TIME STEP LENGTH  87600.      1460.0      24.333      1.0139     2.77588E-03
 STRESS PERIOD TIME 2.62800E+06  43800.      730.00      30.417     8.32763E-02
         TOTAL TIME 1.84824E+07 3.08040E+05  5134.0      213.92     0.58567    
1
1
                            STRESS PERIOD NO.    9, LENGTH =   2628000.    
                            -----------------------------------------------

                              NUMBER OF TIME STEPS =    30

                               MULTIPLIER FOR DELT =     1.000

                            INITIAL TIME STEP SIZE =   87600.00    

 REUSING NON-PARAMETER GHB CELLS FROM LAST STRESS PERIOD

      2 GHB CELLS

 REUSING STREAM SEGMENT DATA FROM LAST STRESS PERIOD



            AREAL INFILTRATION RATE
 READING ON UNIT   19 WITH FORMAT: (10F4.0)            

            1           2           3           4           5           6           7           8           9          10
 ........................................................................................................................
   1    0.000       0.000       0.000       0.000       0.000       0.000       0.000       0.000       0.000       0.000    
   2    0.000       0.000       0.000       0.000       0.000       0.000       0.000       0.000       0.000       0.000    
   3    0.000       0.000       0.000       0.000       0.000       0.000       0.000       0.000       0.000       0.000    
   4    0.000       0.000       0.000       0.000       0.000       0.000       0.000       0.000       0.000       0.000    
   5    0.000       0.000       0.000       0.000       0.000       0.000       0.000       0.000       0.000       0.000    
   6    0.000       0.000       0.000       0.000       0.000       0.000       0.000       0.000       0.000       0.000    
   7    0.000       0.000       0.000       0.000       0.000       0.000       0.000       0.000       0.000       0.000    
   8    0.000       0.000       0.000       0.000       0.000       0.000       0.000       0.000       0.000       0.000    
   9    0.000       0.000       0.000       0.000       0.000       0.000       0.000       0.000       0.000       0.000    
  10    0.000       0.000       0.000       0.000       0.000       0.000       0.000       0.000       0.000       0.000    
  11    0.000       0.000       0.000       0.000       0.000       0.000       0.000       0.000       0.000       0.000    
  12    0.000       0.000       0.000       0.000       0.000       0.000       0.000       0.000       0.000       0.000    
  13    0.000       0.000       0.000       0.000       0.000       0.000       0.000       0.000       0.000       0.000    
  14    0.000       0.000       0.000       0.000       0.000       0.000       0.000       0.000       0.000       0.000    
  15    0.000       0.000       0.000       0.000       0.000       0.000       0.000       0.000       0.000       0.000    

                  ET RATE =  6.500000E-08

 USING ET EXTINCTION DEPTH FROM PREVIOUS STRESS PERIOD. CURRENT PERIOD IS:       9

 USING EXTINCTION WATER CONTENT FROM PREVIOUS STRESS PERIOD. CURRENT PERIOD IS:       9

 PROCESSING AWU STRESS PERIOD DATA

 READING AWU STRESS PERIOD DATA

 READING IRRIGATION WELL

 END PROCESSING AWU STRESS PERIOD DATA OPTIONS
 
 SOLVING FOR HEAD 
                                                   Max.-Head-Change                         Max.-Flux-Residual
  Residual-Control   Outer-Iter.   Inner-Iter.     Column Row Layer    Maximum-Head-Change  Column Row Layer    Maximum-Flux-Residual          L2-NORM 
          0                 1           2             4    7     1      -0.8903236610E-02       4    7    1        -0.4689420444E+00      0.1330098202E+01
          0                 2           2             4    7     1       0.8822278759E-03       4    7    1         0.4689407473E-01      0.1326522437E+00
          0                 3           1             4    7     1      -0.7867937809E-04       4    7    1        -0.4220468524E-02      0.1190577385E-01

    ------------------------------------------------
       NWT REQUIRED            3 OUTER ITERATIONS 
       AND A TOTAL OF          5 INNER ITERATIONS.
    ------------------------------------------------

 NO OUTPUT CONTROL FOR STRESS PERIOD    9   TIME STEP    1
 
 SOLVING FOR HEAD 
                                                   Max.-Head-Change                         Max.-Flux-Residual
  Residual-Control   Outer-Iter.   Inner-Iter.     Column Row Layer    Maximum-Head-Change  Column Row Layer    Maximum-Flux-Residual          L2-NORM 
          0                 1           2             4    7     1      -0.8600581889E-02       4    7    1        -0.4529332130E+00      0.1298722811E+01
          0                 2           2             4    7     1       0.8522376866E-03       4    7    1         0.4529320104E-01      0.1295532434E+00
          0                 3           1             4    7     1      -0.7600477395E-04       4    7    1        -0.4076389775E-02      0.1162978975E-01

    ------------------------------------------------
       NWT REQUIRED            3 OUTER ITERATIONS 
       AND A TOTAL OF          5 INNER ITERATIONS.
    ------------------------------------------------

 NO OUTPUT CONTROL FOR STRESS PERIOD    9   TIME STEP    2
 
 SOLVING FOR HEAD 
                                                   Max.-Head-Change                         Max.-Flux-Residual
  Residual-Control   Outer-Iter.   Inner-Iter.     Column Row Layer    Maximum-Head-Change  Column Row Layer    Maximum-Flux-Residual          L2-NORM 
          0                 1           2             4    7     1      -0.8301801955E-02       4    7    1        -0.4371316769E+00      0.1268759111E+01
          0                 2           2             4    7     1       0.8226314470E-03       4    7    1         0.4371305647E-01      0.1265910851E+00
          0                 3           1             4    7     1      -0.7336441190E-04       4    7    1        -0.3934176660E-02      0.1136640525E-01

    ------------------------------------------------
       NWT REQUIRED            3 OUTER ITERATIONS 
       AND A TOTAL OF          5 INNER ITERATIONS.
    ------------------------------------------------

 NO OUTPUT CONTROL FOR STRESS PERIOD    9   TIME STEP    3
 
 SOLVING FOR HEAD 
                                                   Max.-Head-Change                         Max.-Flux-Residual
  Residual-Control   Outer-Iter.   Inner-Iter.     Column Row Layer    Maximum-Head-Change  Column Row Layer    Maximum-Flux-Residual          L2-NORM 
          0                 1           2             4    7     1      -0.8011125619E-02       4    7    1        -0.4217585303E+00      0.1240394522E+01
          0                 2           2             4    7     1       0.7938281922E-03       4    7    1         0.4217575030E-01      0.1237852438E+00
          0                 3           1             4    7     1      -0.7079566209E-04       4    7    1        -0.3795819013E-02      0.1111664874E-01

    ------------------------------------------------
       NWT REQUIRED            3 OUTER ITERATIONS 
       AND A TOTAL OF          5 INNER ITERATIONS.
    ------------------------------------------------

 NO OUTPUT CONTROL FOR STRESS PERIOD    9   TIME STEP    4
 
 SOLVING FOR HEAD 
                                                   Max.-Head-Change                         Max.-Flux-Residual
  Residual-Control   Outer-Iter.   Inner-Iter.     Column Row Layer    Maximum-Head-Change  Column Row Layer    Maximum-Flux-Residual          L2-NORM 
          0                 1           2             4    7     1      -0.7726457746E-02       4    7    1        -0.4067039459E+00      0.1277545759E+01
          0                 2           2             4    7     1       0.7656203143E-03       4    7    1         0.4067029989E-01      0.1271754607E+00
          0                 3           1             4    7     1      -0.6828000952E-04       4    7    1        -0.3660328371E-02      0.1139211986E-01

    ------------------------------------------------
       NWT REQUIRED            3 OUTER ITERATIONS 
       AND A TOTAL OF          5 INNER ITERATIONS.
    ------------------------------------------------

 NO OUTPUT CONTROL FOR STRESS PERIOD    9   TIME STEP    5
 
 SOLVING FOR HEAD 
                                                   Max.-Head-Change                         Max.-Flux-Residual
  Residual-Control   Outer-Iter.   Inner-Iter.     Column Row Layer    Maximum-Head-Change  Column Row Layer    Maximum-Flux-Residual          L2-NORM 
          0                 1           2             2   13     1      -0.1089310088E-01       2   13    1        -0.6157698461E+00      0.1597602031E+01
          0                 2           2             2   13     1       0.1044674347E-02       2   13    1         0.5959166884E-01      0.1588281571E+00
          0                 3           1             2   13     1      -0.8909428478E-04       4   13    1        -0.5153324566E-02      0.1411631959E-01

    ------------------------------------------------
       NWT REQUIRED            3 OUTER ITERATIONS 
       AND A TOTAL OF          5 INNER ITERATIONS.
    ------------------------------------------------

 NO OUTPUT CONTROL FOR STRESS PERIOD    9   TIME STEP    6
 
 SOLVING FOR HEAD 
                                                   Max.-Head-Change                         Max.-Flux-Residual
  Residual-Control   Outer-Iter.   Inner-Iter.     Column Row Layer    Maximum-Head-Change  Column Row Layer    Maximum-Flux-Residual          L2-NORM 
          0                 1           2             2   13     1      -0.1003867275E-01       2   13    1        -0.5673621206E+00      0.1530006354E+01
          0                 2           2             2   13     1       0.9545685280E-03       2   13    1         0.5444121973E-01      0.1510928034E+00
          0                 3           1             2   13     1      -0.8126270983E-04       2   13    1        -0.4676795746E-02      0.1341769190E-01

    ------------------------------------------------
       NWT REQUIRED            3 OUTER ITERATIONS 
       AND A TOTAL OF          5 INNER ITERATIONS.
    ------------------------------------------------

 NO OUTPUT CONTROL FOR STRESS PERIOD    9   TIME STEP    7
 
 SOLVING FOR HEAD 
                                                   Max.-Head-Change                         Max.-Flux-Residual
  Residual-Control   Outer-Iter.   Inner-Iter.     Column Row Layer    Maximum-Head-Change  Column Row Layer    Maximum-Flux-Residual          L2-NORM 
          0                 1           2             2   13     1      -0.9260671634E-02       2   13    1        -0.5232877347E+00      0.1467762748E+01
          0                 2           2             2   13     1       0.8805031251E-03       2   13    1         0.5020683482E-01      0.1450662578E+00
          0                 3           1             2   13     1      -0.7495244250E-04       2   13    1        -0.4312706144E-02      0.1289433018E-01

    ------------------------------------------------
       NWT REQUIRED            3 OUTER ITERATIONS 
       AND A TOTAL OF          5 INNER ITERATIONS.
    ------------------------------------------------

 NO OUTPUT CONTROL FOR STRESS PERIOD    9   TIME STEP    8
 
 SOLVING FOR HEAD 
                                                   Max.-Head-Change                         Max.-Flux-Residual
  Residual-Control   Outer-Iter.   Inner-Iter.     Column Row Layer    Maximum-Head-Change  Column Row Layer    Maximum-Flux-Residual          L2-NORM 
          0                 1           2             2   13     1      -0.8544701227E-02       2   13    1        -0.4827333922E+00      0.1405114120E+01
          0                 2           2             2   13     1       0.8123652368E-03       2   13    1         0.4631191639E-01      0.1389749009E+00
          0                 3           1             2   13     1      -0.6916005542E-04       2   13    1        -0.3978562881E-02      0.1236277448E-01

    ------------------------------------------------
       NWT REQUIRED            3 OUTER ITERATIONS 
       AND A TOTAL OF          5 INNER ITERATIONS.
    ------------------------------------------------

 NO OUTPUT CONTROL FOR STRESS PERIOD    9   TIME STEP    9
 
 SOLVING FOR HEAD 
                                                   Max.-Head-Change                         Max.-Flux-Residual
  Residual-Control   Outer-Iter.   Inner-Iter.     Column Row Layer    Maximum-Head-Change  Column Row Layer    Maximum-Flux-Residual          L2-NORM 
          0                 1           2             2   13     1      -0.7885796376E-02       2   13    1        -0.4454168694E+00      0.1347256306E+01
          0                 2           2             2   13     1       0.7496123506E-03       2   13    1         0.4272534442E-01      0.1333441514E+00
          0                 3           1             2   13     1      -0.6379061856E-04       2   13    1        -0.3668842763E-02      0.1187055464E-01

    ------------------------------------------------
       NWT REQUIRED            3 OUTER ITERATIONS 
       AND A TOTAL OF          5 INNER ITERATIONS.
    ------------------------------------------------

 NO OUTPUT CONTROL FOR STRESS PERIOD    9   TIME STEP   10
 
 SOLVING FOR HEAD 
                                                   Max.-Head-Change                         Max.-Flux-Residual
  Residual-Control   Outer-Iter.   Inner-Iter.     Column Row Layer    Maximum-Head-Change  Column Row Layer    Maximum-Flux-Residual          L2-NORM 
          0                 1           2             2   13     1      -0.7279320652E-02       2   13    1        -0.4110745610E+00      0.1294145730E+01
          0                 2           2             2   13     1       0.6918703496E-03       2   13    1         0.3942567944E-01      0.1281730661E+00
          0                 3           1             2   13     1      -0.5888594864E-04       2   13    1        -0.3385996967E-02      0.1141907417E-01

    ------------------------------------------------
       NWT REQUIRED            3 OUTER ITERATIONS 
       AND A TOTAL OF          5 INNER ITERATIONS.
    ------------------------------------------------

 NO OUTPUT CONTROL FOR STRESS PERIOD    9   TIME STEP   11
 
 SOLVING FOR HEAD 
                                                   Max.-Head-Change                         Max.-Flux-Residual
  Residual-Control   Outer-Iter.   Inner-Iter.     Column Row Layer    Maximum-Head-Change  Column Row Layer    Maximum-Flux-Residual          L2-NORM 
          0                 1           2             3    7     1      -0.5848319141E-02       4    7    1        -0.2845741491E+00      0.1094242514E+01
          0                 2           2             3    7     1       0.5795147036E-03       4    7    1         0.2845737288E-01      0.1125315638E+00
          0                 3           1             3    7     1      -0.5168262228E-04       7   13    1         0.2623408737E-02      0.1016036890E-01

    ------------------------------------------------
       NWT REQUIRED            3 OUTER ITERATIONS 
       AND A TOTAL OF          5 INNER ITERATIONS.
    ------------------------------------------------

 NO OUTPUT CONTROL FOR STRESS PERIOD    9   TIME STEP   12
 
 SOLVING FOR HEAD 
                                                   Max.-Head-Change                         Max.-Flux-Residual
  Residual-Control   Outer-Iter.   Inner-Iter.     Column Row Layer    Maximum-Head-Change  Column Row Layer    Maximum-Flux-Residual          L2-NORM 
          0                 1           2             3    7     1      -0.5816863277E-02       6    7    1        -0.2787435339E+00      0.1015280966E+01
          0                 2           2             3    7     1       0.5763976833E-03       6    7    1         0.2787430259E-01      0.1014405180E+00
          0                 3           1             3    7     1      -0.5140463822E-04       6    7    1        -0.2508688043E-02      0.9121674202E-02

    ------------------------------------------------
       NWT REQUIRED            3 OUTER ITERATIONS 
       AND A TOTAL OF          5 INNER ITERATIONS.
    ------------------------------------------------

 NO OUTPUT CONTROL FOR STRESS PERIOD    9   TIME STEP   13
 
 SOLVING FOR HEAD 
                                                   Max.-Head-Change                         Max.-Flux-Residual
  Residual-Control   Outer-Iter.   Inner-Iter.     Column Row Layer    Maximum-Head-Change  Column Row Layer    Maximum-Flux-Residual          L2-NORM 
          0                 1           2             3    7     1      -0.5783711547E-02       6    7    1        -0.2742623261E+00      0.9876692668E+00
          0                 2           2             3    7     1       0.5731126213E-03       6    7    1         0.2742618138E-01      0.9869651506E-01
          0                 3           1             3    7     1      -0.5111166898E-04       6    7    1        -0.2468357133E-02      0.8876069275E-02

    ------------------------------------------------
       NWT REQUIRED            3 OUTER ITERATIONS 
       AND A TOTAL OF          5 INNER ITERATIONS.
    ------------------------------------------------

 NO OUTPUT CONTROL FOR STRESS PERIOD    9   TIME STEP   14
 
 SOLVING FOR HEAD 
                                                   Max.-Head-Change                         Max.-Flux-Residual
  Residual-Control   Outer-Iter.   Inner-Iter.     Column Row Layer    Maximum-Head-Change  Column Row Layer    Maximum-Flux-Residual          L2-NORM 
          0                 1           2             3    7     1      -0.5747963016E-02       6    7    1        -0.2697518710E+00      0.9619293353E+00
          0                 2           2             3    7     1       0.5695702408E-03       6    7    1         0.2697513558E-01      0.9613686914E-01
          0                 3           1             3    7     1      -0.5079574994E-04       6    7    1        -0.2427763013E-02      0.8647022358E-02

    ------------------------------------------------
       NWT REQUIRED            3 OUTER ITERATIONS 
       AND A TOTAL OF          5 INNER ITERATIONS.
    ------------------------------------------------

 NO OUTPUT CONTROL FOR STRESS PERIOD    9   TIME STEP   15
 
 SOLVING FOR HEAD 
                                                   Max.-Head-Change                         Max.-Flux-Residual
  Residual-Control   Outer-Iter.   Inner-Iter.     Column Row Layer    Maximum-Head-Change  Column Row Layer    Maximum-Flux-Residual          L2-NORM 
          0                 1           2             3    7     1      -0.5710449255E-02       6    7    1        -0.2652026379E+00      0.9393321521E+00
          0                 2           2             3    7     1       0.5658529473E-03       6    7    1         0.2652021235E-01      0.9388885669E-01
          0                 3           1             3    7     1      -0.5046423249E-04       6    7    1        -0.2386819903E-02      0.8445798877E-02

    ------------------------------------------------
       NWT REQUIRED            3 OUTER ITERATIONS 
       AND A TOTAL OF          5 INNER ITERATIONS.
    ------------------------------------------------

 NO OUTPUT CONTROL FOR STRESS PERIOD    9   TIME STEP   16
 
 SOLVING FOR HEAD 
                                                   Max.-Head-Change                         Max.-Flux-Residual
  Residual-Control   Outer-Iter.   Inner-Iter.     Column Row Layer    Maximum-Head-Change  Column Row Layer    Maximum-Flux-Residual          L2-NORM 
          0                 1           2             3    7     1      -0.5670978693E-02       6    7    1        -0.2606403149E+00      0.9193967651E+00
          0                 2           2             3    7     1       0.5619417573E-03       6    7    1         0.2606398052E-01      0.9190510075E-01
          0                 3           1             3    7     1      -0.5011542305E-04       6    7    1        -0.2345759034E-02      0.8268253147E-02

    ------------------------------------------------
       NWT REQUIRED            3 OUTER ITERATIONS 
       AND A TOTAL OF          5 INNER ITERATIONS.
    ------------------------------------------------

 NO OUTPUT CONTROL FOR STRESS PERIOD    9   TIME STEP   17
 
 SOLVING FOR HEAD 
                                                   Max.-Head-Change                         Max.-Flux-Residual
  Residual-Control   Outer-Iter.   Inner-Iter.     Column Row Layer    Maximum-Head-Change  Column Row Layer    Maximum-Flux-Residual          L2-NORM 
          0                 1           2             3    7     1      -0.5630335748E-02       6    7    1        -0.2561027515E+00      0.9017969560E+00
          0                 2           2             3    7     1       0.5579143979E-03       6    7    1         0.2561022490E-01      0.9015292368E-01
          0                 3           1             3    7     1      -0.4975625258E-04       6    7    1        -0.2304921036E-02      0.8111447319E-02

    ------------------------------------------------
       NWT REQUIRED            3 OUTER ITERATIONS 
       AND A TOTAL OF          5 INNER ITERATIONS.
    ------------------------------------------------

 NO OUTPUT CONTROL FOR STRESS PERIOD    9   TIME STEP   18
 
 SOLVING FOR HEAD 
                                                   Max.-Head-Change                         Max.-Flux-Residual
  Residual-Control   Outer-Iter.   Inner-Iter.     Column Row Layer    Maximum-Head-Change  Column Row Layer    Maximum-Flux-Residual          L2-NORM 
          0                 1           2             3    7     1      -0.5588785417E-02       6    7    1        -0.2515945764E+00      0.9649065528E+00
          0                 2           2             3    7     1       0.5537971292E-03       6    7    1         0.2515940840E-01      0.9606507465E-01
          0                 3           1             3    7     1      -0.4938906372E-04       6    7    1        -0.2264347520E-02      0.8606510126E-02

    ------------------------------------------------
       NWT REQUIRED            3 OUTER ITERATIONS 
       AND A TOTAL OF          5 INNER ITERATIONS.
    ------------------------------------------------

 NO OUTPUT CONTROL FOR STRESS PERIOD    9   TIME STEP   19
 
 SOLVING FOR HEAD 
                                                   Max.-Head-Change                         Max.-Flux-Residual
  Residual-Control   Outer-Iter.   Inner-Iter.     Column Row Layer    Maximum-Head-Change  Column Row Layer    Maximum-Flux-Residual          L2-NORM 
          0                 1           2             4   13     1      -0.6997057501E-02       4   13    1        -0.3996496525E+00      0.1152187145E+01
          0                 2           2             4   13     1       0.6929777879E-03       4   13    1         0.3994904122E-01      0.1148402128E+00
          0                 3           1             4   13     1      -0.6109183338E-04       4   13    1        -0.3554327923E-02      0.1022722092E-01

    ------------------------------------------------
       NWT REQUIRED            3 OUTER ITERATIONS 
       AND A TOTAL OF          5 INNER ITERATIONS.
    ------------------------------------------------

 NO OUTPUT CONTROL FOR STRESS PERIOD    9   TIME STEP   20
 
 SOLVING FOR HEAD 
                                                   Max.-Head-Change                         Max.-Flux-Residual
  Residual-Control   Outer-Iter.   Inner-Iter.     Column Row Layer    Maximum-Head-Change  Column Row Layer    Maximum-Flux-Residual          L2-NORM 
          0                 1           2             4   13     1      -0.6373178955E-02       4   13    1        -0.3635975445E+00      0.1113034866E+01
          0                 2           2             4   13     1       0.6236550835E-03       4   13    1         0.3590731688E-01      0.1100945805E+00
          0                 3           1             4   13     1      -0.5485208136E-04       4   13    1        -0.3187150057E-02      0.9794862412E-02

    ------------------------------------------------
       NWT REQUIRED            3 OUTER ITERATIONS 
       AND A TOTAL OF          5 INNER ITERATIONS.
    ------------------------------------------------

 NO OUTPUT CONTROL FOR STRESS PERIOD    9   TIME STEP   21
 
 SOLVING FOR HEAD 
                                                   Max.-Head-Change                         Max.-Flux-Residual
  Residual-Control   Outer-Iter.   Inner-Iter.     Column Row Layer    Maximum-Head-Change  Column Row Layer    Maximum-Flux-Residual          L2-NORM 
          0                 1           2             4   13     1      -0.5818725645E-02       4   13    1        -0.3315695271E+00      0.1077647368E+01
          0                 2           2             4   13     1       0.5692565263E-03       4   13    1         0.3273567696E-01      0.1066892878E+00
          0                 3           1             4   13     1      -0.5006788847E-04       4   13    1        -0.2905606727E-02      0.9501726583E-02

    ------------------------------------------------
       NWT REQUIRED            3 OUTER ITERATIONS 
       AND A TOTAL OF          5 INNER ITERATIONS.
    ------------------------------------------------

 NO OUTPUT CONTROL FOR STRESS PERIOD    9   TIME STEP   22
 
 SOLVING FOR HEAD 
                                                   Max.-Head-Change                         Max.-Flux-Residual
  Residual-Control   Outer-Iter.   Inner-Iter.     Column Row Layer    Maximum-Head-Change  Column Row Layer    Maximum-Flux-Residual          L2-NORM 
          0                 1           2             3    7     1      -0.5416282121E-02       4   13    1        -0.3027319992E+00      0.1046231429E+01
          0                 2           2             3    7     1       0.5367036153E-03       4   13    1         0.2987798664E-01      0.1036661845E+00
          0                 3           1             3    7     1      -0.4786462058E-04       4   13    1        -0.2650367911E-02      0.9240141953E-02

    ------------------------------------------------
       NWT REQUIRED            3 OUTER ITERATIONS 
       AND A TOTAL OF          5 INNER ITERATIONS.
    ------------------------------------------------

 NO OUTPUT CONTROL FOR STRESS PERIOD    9   TIME STEP   23
 
 SOLVING FOR HEAD 
                                                   Max.-Head-Change                         Max.-Flux-Residual
  Residual-Control   Outer-Iter.   Inner-Iter.     Column Row Layer    Maximum-Head-Change  Column Row Layer    Maximum-Flux-Residual          L2-NORM 
          0                 1           2             3    7     1      -0.5372182527E-02       4   13    1        -0.2767763155E+00      0.1018302396E+01
          0                 2           2             3    7     1       0.5323337506E-03       4   13    1         0.2733228664E-01      0.1009869373E+00
          0                 3           1             3    7     1      -0.4747490507E-04       4   13    1        -0.2423087422E-02      0.9008916003E-02

    ------------------------------------------------
       NWT REQUIRED            3 OUTER ITERATIONS 
       AND A TOTAL OF          5 INNER ITERATIONS.
    ------------------------------------------------

 NO OUTPUT CONTROL FOR STRESS PERIOD    9   TIME STEP   24
 
 SOLVING FOR HEAD 
                                                   Max.-Head-Change                         Max.-Flux-Residual
  Residual-Control   Outer-Iter.   Inner-Iter.     Column Row Layer    Maximum-Head-Change  Column Row Layer    Maximum-Flux-Residual          L2-NORM 
          0                 1           2             3    7     1      -0.5328209556E-02       2   13    1        -0.2558930379E+00      0.9934250517E+00
          0                 2           2             3    7     1       0.5279764331E-03       4   13    1         0.2498896892E-01      0.9858365595E-01
          0                 3           1             3    7     1      -0.4708630746E-04       4   13    1        -0.2215681583E-02      0.8796884631E-02

    ------------------------------------------------
       NWT REQUIRED            3 OUTER ITERATIONS 
       AND A TOTAL OF          5 INNER ITERATIONS.
    ------------------------------------------------

 NO OUTPUT CONTROL FOR STRESS PERIOD    9   TIME STEP   25
 
 SOLVING FOR HEAD 
                                                   Max.-Head-Change                         Max.-Flux-Residual
  Residual-Control   Outer-Iter.   Inner-Iter.     Column Row Layer    Maximum-Head-Change  Column Row Layer    Maximum-Flux-Residual          L2-NORM 
          0                 1           2             3    7     1      -0.5284463783E-02       6    7    1        -0.2223509334E+00      0.8429884546E+00
          0                 2           2             7   13     1      -0.1275378369E-02       7   13    1        -0.7010010003E-01      0.1093761220E+00
          0                 3           2             7   13     1       0.1137173999E-03       7   13    1         0.6307705228E-02      0.9853484253E-02
          0                 4           1             7   13     1      -0.9024170743E-05       7   13    1        -0.5051420067E-03      0.7889634185E-03

    ------------------------------------------------
       NWT REQUIRED            4 OUTER ITERATIONS 
       AND A TOTAL OF          7 INNER ITERATIONS.
    ------------------------------------------------

 NO OUTPUT CONTROL FOR STRESS PERIOD    9   TIME STEP   26
 
 SOLVING FOR HEAD 
                                                   Max.-Head-Change                         Max.-Flux-Residual
  Residual-Control   Outer-Iter.   Inner-Iter.     Column Row Layer    Maximum-Head-Change  Column Row Layer    Maximum-Flux-Residual          L2-NORM 
          0                 1           2             3    7     1      -0.5240583628E-02       4   13    1         0.2481850222E+00      0.9019383250E+00
          0                 2           2             3    7     1       0.5192935147E-03       4   13    1        -0.2463399456E-01      0.8974842977E-01
          0                 3           1             3    7     1      -0.4631194263E-04       4   13    1         0.2198443431E-02      0.8035408117E-02

    ------------------------------------------------
       NWT REQUIRED            3 OUTER ITERATIONS 
       AND A TOTAL OF          5 INNER ITERATIONS.
    ------------------------------------------------

 NO OUTPUT CONTROL FOR STRESS PERIOD    9   TIME STEP   27
 
 SOLVING FOR HEAD 
                                                   Max.-Head-Change                         Max.-Flux-Residual
  Residual-Control   Outer-Iter.   Inner-Iter.     Column Row Layer    Maximum-Head-Change  Column Row Layer    Maximum-Flux-Residual          L2-NORM 
          0                 1           2             3    7     1      -0.5197539980E-02       4   13    1         0.2203195836E+00      0.8800779240E+00
          0                 2           2             3    7     1       0.5150282882E-03       4   13    1        -0.2187413343E-01      0.8763516457E-01
          0                 3           1             3    7     1      -0.4593155817E-04       4   13    1         0.1953527524E-02      0.7852678843E-02

    ------------------------------------------------
       NWT REQUIRED            3 OUTER ITERATIONS 
       AND A TOTAL OF          5 INNER ITERATIONS.
    ------------------------------------------------

 NO OUTPUT CONTROL FOR STRESS PERIOD    9   TIME STEP   28
 
 SOLVING FOR HEAD 
                                                   Max.-Head-Change                         Max.-Flux-Residual
  Residual-Control   Outer-Iter.   Inner-Iter.     Column Row Layer    Maximum-Head-Change  Column Row Layer    Maximum-Flux-Residual          L2-NORM 
          0                 1           2             3    7     1      -0.5153953382E-02       6    7    1        -0.2172725355E+00      0.8269423611E+00
          0                 2           2             3    7     1       0.5107092628E-03       6    7    1         0.2172721695E-01      0.8261706426E-01
          0                 3           1             3    7     1      -0.4554637642E-04       6    7    1        -0.1955450111E-02      0.7428314642E-02

    ------------------------------------------------
       NWT REQUIRED            3 OUTER ITERATIONS 
       AND A TOTAL OF          5 INNER ITERATIONS.
    ------------------------------------------------

 NO OUTPUT CONTROL FOR STRESS PERIOD    9   TIME STEP   29
 
 SOLVING FOR HEAD 
                                                   Max.-Head-Change                         Max.-Flux-Residual
  Residual-Control   Outer-Iter.   Inner-Iter.     Column Row Layer    Maximum-Head-Change  Column Row Layer    Maximum-Flux-Residual          L2-NORM 
          0                 1           2             3    7     1      -0.5111377828E-02       6    7    1        -0.2321761219E+00      0.8879977496E+00
          0                 2           2             3    7     1       0.5064904218E-03       6    7    1         0.2321756981E-01      0.8851224278E-01
          0                 3           1             3    7     1      -0.4517012935E-04       6    7    1        -0.2089581941E-02      0.7939056199E-02

    ------------------------------------------------
       NWT REQUIRED            3 OUTER ITERATIONS 
       AND A TOTAL OF          5 INNER ITERATIONS.
    ------------------------------------------------

 NO OUTPUT CONTROL FOR STRESS PERIOD    9   TIME STEP   30



 STREAM LISTING     PERIOD      9   STEP       30

 LAYER ROW COL. STREAM  RCH.  FLOW INTO     FLOW TO   FLOW OUT OF   OVRLND.     DIRECT     STREAM       STREAM     STREAM     STREAM   STREAMBED  STREAMBED
                SEG.NO.  NO.  STRM. RCH.    AQUIFER    STRM. RCH.    RUNOFF     PRECIP       ET          HEAD       DEPTH      WIDTH   CONDCTNC.   GRADIENT

   1    1    1     1     1    2.1000E+01  2.2592E-01   2.0774E+01  0.000E+00  0.000E+00  0.000E+00  1.09416E+03  1.115E+00  1.220E+01  5.490E-02  1.372E+00
   1    2    2     1     2    2.0774E+01  3.4916E-01   2.0425E+01  0.000E+00  0.000E+00  0.000E+00  1.08917E+03  1.110E+00  1.214E+01  8.495E-02  1.370E+00
   1    3    3     1     3    2.0425E+01  2.9709E-01   2.0128E+01  0.000E+00  0.000E+00  0.000E+00  1.08352E+03  1.105E+00  1.206E+01  7.238E-02  1.368E+00
   1    3    4     1     4    2.0128E+01  2.7299E-01   1.9855E+01  0.000E+00  0.000E+00  0.000E+00  1.07851E+03  1.100E+00  1.200E+01  6.659E-02  1.367E+00
   1    4    5     2     1    1.7855E+01  3.1056E-01   1.7544E+01  0.000E+00  0.000E+00  0.000E+00  1.07292E+03  9.816E-01  1.200E+01  7.800E-02  1.327E+00
   1    5    6     2     2    1.7544E+01  2.3834E-01   1.7306E+01  0.000E+00  0.000E+00  0.000E+00  1.06748E+03  9.724E-01  1.200E+01  6.000E-02  1.324E+00
   1    6    6     2     3    1.7306E+01  2.3786E-01   1.7068E+01  0.000E+00  0.000E+00  0.000E+00  1.06276E+03  9.644E-01  1.200E+01  6.000E-02  1.321E+00
   1    7    6     2     4    1.7068E+01  2.3738E-01   1.6831E+01  0.000E+00  0.000E+00  0.000E+00  1.05803E+03  9.564E-01  1.200E+01  6.000E-02  1.319E+00
   1    8    6     2     5    1.6831E+01  2.3690E-01   1.6594E+01  0.000E+00  0.000E+00  0.000E+00  1.05331E+03  9.483E-01  1.200E+01  6.000E-02  1.316E+00
   1    3    5     3     1    2.0000E+00  2.8252E-01   1.7175E+00  0.000E+00  0.000E+00  0.000E+00  1.07555E+03  1.909E+00  9.636E+00  7.227E-02  1.955E+00
   1    3    6     3     2    1.7175E+00  2.4905E-01   1.4684E+00  0.000E+00  0.000E+00  0.000E+00  1.07264E+03  1.727E+00  8.909E+00  6.682E-02  1.864E+00
   1    3    7     3     3    1.4684E+00  1.9718E-01   1.2712E+00  0.000E+00  0.000E+00  0.000E+00  1.06987E+03  1.555E+00  8.218E+00  5.547E-02  1.777E+00
   1    4    8     3     4    1.2712E+00  2.2567E-01   1.0456E+00  0.000E+00  0.000E+00  0.000E+00  1.06682E+03  1.364E+00  7.455E+00  6.709E-02  1.682E+00
   1    5    8     3     5    1.0456E+00  1.5790E-01   8.8768E-01  0.000E+00  0.000E+00  0.000E+00  1.06362E+03  1.164E+00  6.655E+00  4.991E-02  1.582E+00
   1    6    8     3     6    8.8768E-01  5.5980E-02   8.3170E-01  0.000E+00  0.000E+00  0.000E+00  1.06158E+03  1.036E+00  6.145E+00  1.844E-02  1.518E+00
   1    5   10     4     1    1.0000E+01  9.0919E-02   9.9091E+00  0.000E+00  0.000E+00  0.000E+00  1.07836E+03  6.368E-01  1.000E+01  2.500E-02  1.212E+00
   1    5    9     4     2    9.9091E+00  1.8158E-01   9.7275E+00  0.000E+00  0.000E+00  0.000E+00  1.07154E+03  6.315E-01  1.000E+01  5.000E-02  1.211E+00
   1    6    8     4     3    9.7275E+00  1.2689E-01   9.6006E+00  0.000E+00  0.000E+00  0.000E+00  1.06381E+03  6.256E-01  1.000E+01  3.500E-02  1.209E+00
   1    6    8     5     1    1.0432E+01  2.2686E-01   1.0205E+01  0.000E+00  0.000E+00  0.000E+00  1.05868E+03  6.790E-01  1.542E+01  6.166E-02  1.226E+00
   1    7    7     5     2    1.0205E+01  2.7894E-01   9.9265E+00  0.000E+00  0.000E+00  0.000E+00  1.05417E+03  6.732E-01  1.519E+01  7.594E-02  1.224E+00
   1    8    7     5     3    9.9265E+00  1.9221E-01   9.7343E+00  0.000E+00  0.000E+00  0.000E+00  1.04992E+03  6.676E-01  1.497E+01  5.241E-02  1.223E+00
   1    8    6     5     4    9.7343E+00  1.3577E-01   9.5985E+00  0.000E+00  0.000E+00  0.000E+00  1.04691E+03  6.637E-01  1.482E+01  3.706E-02  1.221E+00
   1    9    6     6     1    2.6192E+01  2.5512E-01   2.5937E+01  0.000E+00  0.000E+00  0.000E+00  1.04398E+03  1.252E+00  1.200E+01  6.000E-02  1.417E+00
   1   10    7     6     2    2.5937E+01  2.5468E-01   2.5683E+01  0.000E+00  0.000E+00  0.000E+00  1.03943E+03  1.245E+00  1.200E+01  6.000E-02  1.415E+00
   1   11    7     6     3    2.5683E+01  2.5424E-01   2.5428E+01  0.000E+00  0.000E+00  0.000E+00  1.03487E+03  1.237E+00  1.200E+01  6.000E-02  1.412E+00
   1   12    7     6     4    2.5428E+01  2.5379E-01   2.5174E+01  0.000E+00  0.000E+00  0.000E+00  1.03032E+03  1.230E+00  1.200E+01  6.000E-02  1.410E+00
   1   13    7     6     5    2.5174E+01  2.9220E-03   2.5172E+01  0.000E+00  0.000E+00  0.000E+00  1.02714E+03  1.226E+00  1.200E+01  2.400E-02  4.058E-02
   1   14    9     7     1    1.5000E+02  1.3379E+00   1.4866E+02  0.000E+00  0.000E+00  0.000E+00  1.03987E+03  2.288E+00  5.529E+01  5.593E-01  7.973E-01
   1   13    8     7     2    1.4866E+02  1.8360E+00   1.4683E+02  0.000E+00  0.000E+00  0.000E+00  1.03478E+03  2.279E+00  5.526E+01  6.148E-01  9.955E-01
   1   13    7     7     3    1.4683E+02  1.4946E+00   1.4533E+02  0.000E+00  0.000E+00  0.000E+00  1.02969E+03  2.270E+00  5.522E+01  5.584E-01  8.921E-01
   1   13    6     8     1    1.7050E+02  9.9028E-01   1.6951E+02  0.000E+00  0.000E+00  0.000E+00  1.02483E+03  2.952E+00  4.281E+01  4.362E-01  7.567E-01
   1   13    5     8     2    1.6951E+02  3.4955E-01   1.6916E+02  0.000E+00  0.000E+00  0.000E+00  1.01857E+03  2.948E+00  4.274E+01  4.356E-01  2.675E-01
   1   13    4     8     3    1.6916E+02 -1.4237E+00   1.7059E+02  0.000E+00  0.000E+00  0.000E+00  1.01233E+03  2.951E+00  4.280E+01  4.361E+00 -1.088E-01
   1   13    3     8     4    1.7059E+02 -2.6592E+00   1.7325E+02  0.000E+00  0.000E+00  0.000E+00  1.00609E+03  2.965E+00  4.299E+01  4.381E+00 -2.024E-01
   1   13    2     8     5    1.7325E+02 -2.0019E+00   1.7525E+02  0.000E+00  0.000E+00  0.000E+00  9.99855E+02  2.980E+00  4.320E+01  4.403E+00 -1.516E-01
   1   13    1     8     6    1.7525E+02 -1.0070E+00   1.7626E+02  0.000E+00  0.000E+00  0.000E+00  9.94864E+02  2.989E+00  4.334E+01  2.650E+00 -1.267E-01
   1    6    8     9     1    0.0000E+00  0.0000E+00   0.0000E+00  0.000E+00  0.000E+00  0.000E+00  1.07850E+03  0.000E+00  4.000E+00  0.000E+00  1.000E+00





UNSATURATED ZONE PACKAGE VOLUMETRIC BUDGET FOR  TIME STEP    30 STRESS PERIOD    9
  ------------------------------------------------------------------------------



     CUMULATIVE VOLUMES      L**3       RATES FOR THIS TIME STEP      L**3/T
     ------------------                 ------------------------

           IN:                                      IN:
           ---                                      ---
        INFILTRATION =    66966637.3125          INFILTRATION =           4.8408

          OUT:                                     OUT:
          ----                                     ----
              UZF ET =    43135387.5608                UZF ET =           6.5152
        UZF RECHARGE =       73224.0000          UZF RECHARGE =       0.0000E+00

            IN - OUT =    23758025.7517              IN - OUT =          -1.6745

          STORAGE:                                 STORAGE:
          --------                                 --------
      STORAGE CHANGE =    23757537.8629        STORAGE CHANGE =          -1.6745

 PERCENT DISCREPANCY IS DIFFERENCE BETWEEN IN-OUT MINUS CHANGE IN STORAGE
 DIVIDED BY THE AVERAGE OF IN AND OUT TIMES 100

 PERCENT DISCREPANCY =           0.00     PERCENT DISCREPANCY =          -0.00






1
  VOLUMETRIC BUDGET FOR ENTIRE MODEL AT END OF TIME STEP   30, STRESS PERIOD   9
  ------------------------------------------------------------------------------

     CUMULATIVE VOLUMES      L**3       RATES FOR THIS TIME STEP      L**3/T
     ------------------                 ------------------------

           IN:                                      IN:
           ---                                      ---
    AWU WELLS            =    66893412.0000      AWU WELLS            =           4.8408
    DIVERSION SEGMENTS   =           0.0000      DIVERSION SEGMENTS   =           0.0000
    GW IRRIGATION        =           0.0000      GW IRRIGATION        =           0.0000
    SW IRRIGATION        =           0.0000      SW IRRIGATION        =           0.0000
    EFFICIENCY FACTOR GW =           0.0000      EFFICIENCY FACTOR GW =           0.0000
    EFFICIENCY FACTOR SW =           0.0000      EFFICIENCY FACTOR SW =           0.0000

                TOTAL IN =    66893412.0000                  TOTAL IN =           4.8408

          OUT:                                     OUT:
          ----                                     ----
    AWU WELLS            =           0.0000      AWU WELLS            =           0.0000
    DIVERSION SEGMENTS   =           0.0000      DIVERSION SEGMENTS   =           0.0000
    GW IRRIGATION        =    66893412.0000      GW IRRIGATION        =           4.8408
    SW IRRIGATION        =           0.0000      SW IRRIGATION        =           0.0000
    EFFICIENCY FACTOR GW =           0.0000      EFFICIENCY FACTOR GW =           0.0000
    EFFICIENCY FACTOR SW =           0.0000      EFFICIENCY FACTOR SW =           0.0000

               TOTAL OUT =    66893412.0000                 TOTAL OUT =           4.8408

                IN - OUT =           0.0000                  IN - OUT =           0.0000

     PERCENT DISCREPANCY =           0.00         PERCENT DISCREPANCY =           0.00



1
  VOLUMETRIC BUDGET FOR ENTIRE MODEL AT END OF TIME STEP   30, STRESS PERIOD   9
  ------------------------------------------------------------------------------

     CUMULATIVE VOLUMES      L**3       RATES FOR THIS TIME STEP      L**3/T
     ------------------                 ------------------------

           IN:                                      IN:
           ---                                      ---
             STORAGE     =    88460464.0000               STORAGE     =           6.5515
       CONSTANT HEAD     =           0.0000         CONSTANT HEAD     =           0.0000
     HEAD DEP BOUNDS     =     6034629.5000       HEAD DEP BOUNDS     =           0.2859
      STREAM LEAKAGE     =   261936800.0000        STREAM LEAKAGE     =          11.8367
        UZF RECHARGE     =       73223.9531          UZF RECHARGE     =           0.0000
               GW ET     =           0.0000                 GW ET     =           0.0000
     SURFACE LEAKAGE     =           0.0000       SURFACE LEAKAGE     =           0.0000
    AWU WELLS            =           0.0000      AWU WELLS            =           0.0000

                TOTAL IN =   356505120.0000                  TOTAL IN =          18.6740

          OUT:                                     OUT:
          ----                                     ----
             STORAGE     =    37990384.0000               STORAGE     =           0.3699
       CONSTANT HEAD     =           0.0000         CONSTANT HEAD     =           0.0000
     HEAD DEP BOUNDS     =     6072137.5000       HEAD DEP BOUNDS     =           0.2753
      STREAM LEAKAGE     =   195863296.0000        STREAM LEAKAGE     =           7.0918
        UZF RECHARGE     =           0.0000          UZF RECHARGE     =           0.0000
               GW ET     =    49678916.0000                 GW ET     =           6.0918
     SURFACE LEAKAGE     =           0.0000       SURFACE LEAKAGE     =           0.0000
    AWU WELLS            =    66893412.0000      AWU WELLS            =           4.8408

               TOTAL OUT =   356498144.0000                 TOTAL OUT =          18.6696

                IN - OUT =        6976.0000                  IN - OUT =       4.4594E-03

     PERCENT DISCREPANCY =           0.00         PERCENT DISCREPANCY =           0.02






         TIME SUMMARY AT END OF TIME STEP   30 IN STRESS PERIOD    9
                    SECONDS     MINUTES      HOURS       DAYS        YEARS
                    -----------------------------------------------------------
   TIME STEP LENGTH  87600.      1460.0      24.333      1.0139     2.77588E-03
 STRESS PERIOD TIME 2.62800E+06  43800.      730.00      30.417     8.32763E-02
         TOTAL TIME 2.11104E+07 3.51840E+05  5864.0      244.33     0.66895    
1
1
                            STRESS PERIOD NO.   10, LENGTH =   2628000.    
                            -----------------------------------------------

                              NUMBER OF TIME STEPS =    30

                               MULTIPLIER FOR DELT =     1.000

                            INITIAL TIME STEP SIZE =   87600.00    

 REUSING NON-PARAMETER GHB CELLS FROM LAST STRESS PERIOD

      2 GHB CELLS

 REUSING STREAM SEGMENT DATA FROM LAST STRESS PERIOD



            AREAL INFILTRATION RATE
 READING ON UNIT   19 WITH FORMAT: (10F4.0)            

            1           2           3           4           5           6           7           8           9          10
 ........................................................................................................................
   1    0.000       0.000       0.000       0.000       0.000       0.000       0.000       0.000       0.000       0.000    
   2    0.000       0.000       0.000       0.000       0.000       0.000       0.000       0.000       0.000       0.000    
   3    0.000       0.000       0.000       0.000       0.000       0.000       0.000       0.000       0.000       0.000    
   4    0.000       0.000       0.000       0.000       0.000       0.000       0.000       0.000       0.000       0.000    
   5    0.000       0.000       0.000       0.000       0.000       0.000       0.000       0.000       0.000       0.000    
   6    0.000       0.000       0.000       0.000       0.000       0.000       0.000       0.000       0.000       0.000    
   7    0.000       0.000       0.000       0.000       0.000       0.000       0.000       0.000       0.000       0.000    
   8    0.000       0.000       0.000       0.000       0.000       0.000       0.000       0.000       0.000       0.000    
   9    0.000       0.000       0.000       0.000       0.000       0.000       0.000       0.000       0.000       0.000    
  10    0.000       0.000       0.000       0.000       0.000       0.000       0.000       0.000       0.000       0.000    
  11    0.000       0.000       0.000       0.000       0.000       0.000       0.000       0.000       0.000       0.000    
  12    0.000       0.000       0.000       0.000       0.000       0.000       0.000       0.000       0.000       0.000    
  13    0.000       0.000       0.000       0.000       0.000       0.000       0.000       0.000       0.000       0.000    
  14    0.000       0.000       0.000       0.000       0.000       0.000       0.000       0.000       0.000       0.000    
  15    0.000       0.000       0.000       0.000       0.000       0.000       0.000       0.000       0.000       0.000    

                  ET RATE =  1.500000E-08

 USING ET EXTINCTION DEPTH FROM PREVIOUS STRESS PERIOD. CURRENT PERIOD IS:      10

 USING EXTINCTION WATER CONTENT FROM PREVIOUS STRESS PERIOD. CURRENT PERIOD IS:      10

 PROCESSING AWU STRESS PERIOD DATA

 READING AWU STRESS PERIOD DATA

 READING IRRIGATION WELL

 END PROCESSING AWU STRESS PERIOD DATA OPTIONS
 
 SOLVING FOR HEAD 
                                                   Max.-Head-Change                         Max.-Flux-Residual
  Residual-Control   Outer-Iter.   Inner-Iter.     Column Row Layer    Maximum-Head-Change  Column Row Layer    Maximum-Flux-Residual          L2-NORM 
          0                 1           2             3   13     1       0.1630411148E-01       3   13    1         0.9299566971E+00      0.2257002548E+01
          0                 2           2             3   13     1      -0.1572801350E-02       3   13    1        -0.9054720353E-01      0.2228110986E+00
          0                 3           2             3   13     1       0.1361419717E-03       3   13    1         0.7910882799E-02      0.1978215052E-01
          0                 4           1             4   13     1      -0.1062002837E-04       4   13    1        -0.6221504436E-03      0.1562369551E-02

    ------------------------------------------------
       NWT REQUIRED            4 OUTER ITERATIONS 
       AND A TOTAL OF          7 INNER ITERATIONS.
    ------------------------------------------------

 NO OUTPUT CONTROL FOR STRESS PERIOD   10   TIME STEP    1
 
 SOLVING FOR HEAD 
                                                   Max.-Head-Change                         Max.-Flux-Residual
  Residual-Control   Outer-Iter.   Inner-Iter.     Column Row Layer    Maximum-Head-Change  Column Row Layer    Maximum-Flux-Residual          L2-NORM 
          0                 1           2             3   13     1       0.1488926038E-01       3   13    1         0.8491390829E+00      0.2143785507E+01
          0                 2           2             3   13     1      -0.1436422205E-02       3   13    1        -0.8268417401E-01      0.2117730312E+00
          0                 3           2             3   13     1       0.1243415990E-03       3   13    1         0.7224203637E-02      0.1881386725E-01
          0                 4           1             4   13     1      -0.9626783365E-05       4   13    1        -0.5635462076E-03      0.1485127930E-02

    ------------------------------------------------
       NWT REQUIRED            4 OUTER ITERATIONS 
       AND A TOTAL OF          7 INNER ITERATIONS.
    ------------------------------------------------

 NO OUTPUT CONTROL FOR STRESS PERIOD   10   TIME STEP    2
 
 SOLVING FOR HEAD 
                                                   Max.-Head-Change                         Max.-Flux-Residual
  Residual-Control   Outer-Iter.   Inner-Iter.     Column Row Layer    Maximum-Head-Change  Column Row Layer    Maximum-Flux-Residual          L2-NORM 
          0                 1           2             5   13     1       0.1068323866E-01       5   13    1         0.5796608973E+00      0.1699964232E+01
          0                 2           2             7   13     1      -0.1900624371E-02       7   13    1        -0.1042045545E+00      0.1976605808E+00
          0                 3           2             7   13     1       0.1694230988E-03       7   13    1         0.9374087096E-02      0.1773113205E-01
          0                 4           1             7   13     1      -0.1344009777E-04       7   13    1        -0.7504494442E-03      0.1415358886E-02

    ------------------------------------------------
       NWT REQUIRED            4 OUTER ITERATIONS 
       AND A TOTAL OF          7 INNER ITERATIONS.
    ------------------------------------------------

 NO OUTPUT CONTROL FOR STRESS PERIOD   10   TIME STEP    3
 
 SOLVING FOR HEAD 
                                                   Max.-Head-Change                         Max.-Flux-Residual
  Residual-Control   Outer-Iter.   Inner-Iter.     Column Row Layer    Maximum-Head-Change  Column Row Layer    Maximum-Flux-Residual          L2-NORM 
          0                 1           2             5   13     1       0.1024242588E-01       5   13    1         0.5557371321E+00      0.1639389875E+01
          0                 2           2             5   13     1      -0.1014735793E-02       5   13    1        -0.5556750730E-01      0.1634236461E+00
          0                 3           1             5   13     1       0.9047635576E-04       5   13    1         0.5000392057E-02      0.1466117171E-01

    ------------------------------------------------
       NWT REQUIRED            3 OUTER ITERATIONS 
       AND A TOTAL OF          5 INNER ITERATIONS.
    ------------------------------------------------

 NO OUTPUT CONTROL FOR STRESS PERIOD   10   TIME STEP    4
 
 SOLVING FOR HEAD 
                                                   Max.-Head-Change                         Max.-Flux-Residual
  Residual-Control   Outer-Iter.   Inner-Iter.     Column Row Layer    Maximum-Head-Change  Column Row Layer    Maximum-Flux-Residual          L2-NORM 
          0                 1           2             5   13     1       0.9812844814E-02       5   13    1         0.5324374712E+00      0.1582009266E+01
          0                 2           2             5   13     1      -0.9721789381E-03       5   13    1        -0.5323776807E-01      0.1577351279E+00
          0                 3           1             5   13     1       0.8668515011E-04       5   13    1         0.4790851632E-02      0.1415357147E-01

    ------------------------------------------------
       NWT REQUIRED            3 OUTER ITERATIONS 
       AND A TOTAL OF          5 INNER ITERATIONS.
    ------------------------------------------------

 NO OUTPUT CONTROL FOR STRESS PERIOD   10   TIME STEP    5
 
 SOLVING FOR HEAD 
                                                   Max.-Head-Change                         Max.-Flux-Residual
  Residual-Control   Outer-Iter.   Inner-Iter.     Column Row Layer    Maximum-Head-Change  Column Row Layer    Maximum-Flux-Residual          L2-NORM 
          0                 1           2             5   13     1       0.9401238621E-02       5   13    1         0.5101088519E+00      0.1528490225E+01
          0                 2           2             5   13     1      -0.9314035538E-03       5   13    1        -0.5100527119E-01      0.1524269333E+00
          0                 3           1             5   13     1       0.8304859728E-04       5   13    1         0.4589947675E-02      0.1367934799E-01

    ------------------------------------------------
       NWT REQUIRED            3 OUTER ITERATIONS 
       AND A TOTAL OF          5 INNER ITERATIONS.
    ------------------------------------------------

 NO OUTPUT CONTROL FOR STRESS PERIOD   10   TIME STEP    6
 
 SOLVING FOR HEAD 
                                                   Max.-Head-Change                         Max.-Flux-Residual
  Residual-Control   Outer-Iter.   Inner-Iter.     Column Row Layer    Maximum-Head-Change  Column Row Layer    Maximum-Flux-Residual          L2-NORM 
          0                 1           2             5   13     1       0.9007002638E-02       5   13    1         0.4887190352E+00      0.1478485701E+01
          0                 2           2             5   13     1      -0.8923463493E-03       5   13    1        -0.4886647634E-01      0.1474663346E+00
          0                 3           1             5   13     1       0.7956715369E-04       5   13    1         0.4397530613E-02      0.1323650216E-01

    ------------------------------------------------
       NWT REQUIRED            3 OUTER ITERATIONS 
       AND A TOTAL OF          5 INNER ITERATIONS.
    ------------------------------------------------

 NO OUTPUT CONTROL FOR STRESS PERIOD   10   TIME STEP    7
 
 SOLVING FOR HEAD 
                                                   Max.-Head-Change                         Max.-Flux-Residual
  Residual-Control   Outer-Iter.   Inner-Iter.     Column Row Layer    Maximum-Head-Change  Column Row Layer    Maximum-Flux-Residual          L2-NORM 
          0                 1           2             4    7     1       0.8888268905E-02       5   13    1         0.4682178268E+00      0.1431662095E+01
          0                 2           2             4    7     1      -0.8807470237E-03       5   13    1        -0.4681636128E-01      0.1428196224E+00
          0                 3           1             4    7     1       0.7854728875E-04       5   13    1         0.4212875387E-02      0.1282092827E-01

    ------------------------------------------------
       NWT REQUIRED            3 OUTER ITERATIONS 
       AND A TOTAL OF          5 INNER ITERATIONS.
    ------------------------------------------------

 NO OUTPUT CONTROL FOR STRESS PERIOD   10   TIME STEP    8
 
 SOLVING FOR HEAD 
                                                   Max.-Head-Change                         Max.-Flux-Residual
  Residual-Control   Outer-Iter.   Inner-Iter.     Column Row Layer    Maximum-Head-Change  Column Row Layer    Maximum-Flux-Residual          L2-NORM 
          0                 1           2             4    7     1       0.8801221053E-02       4    7    1         0.4623871554E+00      0.1387737879E+01
          0                 2           2             4    7     1      -0.8721214479E-03       4    7    1        -0.4623874370E-01      0.1384603927E+00
          0                 3           1             4    7     1       0.7777803728E-04       4    7    1         0.4161487174E-02      0.1243191277E-01

    ------------------------------------------------
       NWT REQUIRED            3 OUTER ITERATIONS 
       AND A TOTAL OF          5 INNER ITERATIONS.
    ------------------------------------------------

 NO OUTPUT CONTROL FOR STRESS PERIOD   10   TIME STEP    9
 
 SOLVING FOR HEAD 
                                                   Max.-Head-Change                         Max.-Flux-Residual
  Residual-Control   Outer-Iter.   Inner-Iter.     Column Row Layer    Maximum-Head-Change  Column Row Layer    Maximum-Flux-Residual          L2-NORM 
          0                 1           2             1   13     1       0.1045932530E-01       4   13    1         0.5897168716E+00      0.1657373465E+01
          0                 2           2             4   13     1      -0.1003108767E-02       4   13    1        -0.5767849147E-01      0.1665278249E+00
          0                 3           1             4   13     1       0.8819611498E-04       4   13    1         0.5117991125E-02      0.1480792109E-01

    ------------------------------------------------
       NWT REQUIRED            3 OUTER ITERATIONS 
       AND A TOTAL OF          5 INNER ITERATIONS.
    ------------------------------------------------

 NO OUTPUT CONTROL FOR STRESS PERIOD   10   TIME STEP   10
 
 SOLVING FOR HEAD 
                                                   Max.-Head-Change                         Max.-Flux-Residual
  Residual-Control   Outer-Iter.   Inner-Iter.     Column Row Layer    Maximum-Head-Change  Column Row Layer    Maximum-Flux-Residual          L2-NORM 
          0                 1           2             1   13     1       0.1003989555E-01       1   13    1         0.5484511032E+00      0.1592908528E+01
          0                 2           2             1   13     1      -0.9633053757E-03       4   13    1        -0.5391064830E-01      0.1575447289E+00
          0                 3           1             1   13     1       0.8290416551E-04       4   13    1         0.4788738399E-02      0.1401484592E-01

    ------------------------------------------------
       NWT REQUIRED            3 OUTER ITERATIONS 
       AND A TOTAL OF          5 INNER ITERATIONS.
    ------------------------------------------------

 NO OUTPUT CONTROL FOR STRESS PERIOD   10   TIME STEP   11
 
 SOLVING FOR HEAD 
                                                   Max.-Head-Change                         Max.-Flux-Residual
  Residual-Control   Outer-Iter.   Inner-Iter.     Column Row Layer    Maximum-Head-Change  Column Row Layer    Maximum-Flux-Residual          L2-NORM 
          0                 1           2             1   13     1       0.9567832826E-02       1   13    1         0.5227014433E+00      0.1527153707E+01
          0                 2           2             1   13     1      -0.9189375211E-03       1   13    1        -0.5067098698E-01      0.1511467315E+00
          0                 3           1             1   13     1       0.7917563226E-04       1   13    1         0.4406550230E-02      0.1345569884E-01

    ------------------------------------------------
       NWT REQUIRED            3 OUTER ITERATIONS 
       AND A TOTAL OF          5 INNER ITERATIONS.
    ------------------------------------------------

 NO OUTPUT CONTROL FOR STRESS PERIOD   10   TIME STEP   12
 
 SOLVING FOR HEAD 
                                                   Max.-Head-Change                         Max.-Flux-Residual
  Residual-Control   Outer-Iter.   Inner-Iter.     Column Row Layer    Maximum-Head-Change  Column Row Layer    Maximum-Flux-Residual          L2-NORM 
          0                 1           2             1   13     1       0.9116510776E-02       1   13    1         0.4980805277E+00      0.1466538035E+01
          0                 2           2             1   13     1      -0.8764193260E-03       1   13    1        -0.4832971013E-01      0.1452465985E+00
          0                 3           1             1   13     1       0.7560088110E-04       1   13    1         0.4207856191E-02      0.1294006271E-01

    ------------------------------------------------
       NWT REQUIRED            3 OUTER ITERATIONS 
       AND A TOTAL OF          5 INNER ITERATIONS.
    ------------------------------------------------

 NO OUTPUT CONTROL FOR STRESS PERIOD   10   TIME STEP   13
 
 SOLVING FOR HEAD 
                                                   Max.-Head-Change                         Max.-Flux-Residual
  Residual-Control   Outer-Iter.   Inner-Iter.     Column Row Layer    Maximum-Head-Change  Column Row Layer    Maximum-Flux-Residual          L2-NORM 
          0                 1           2             1   13     1       0.8685170346E-02       1   13    1         0.4745472283E+00      0.1410557528E+01
          0                 2           2             1   13     1      -0.8356861637E-03       1   13    1        -0.4608651297E-01      0.1397928769E+00
          0                 3           1             4    7     1       0.7358796470E-04       1   13    1         0.4015958808E-02      0.1246240547E-01

    ------------------------------------------------
       NWT REQUIRED            3 OUTER ITERATIONS 
       AND A TOTAL OF          5 INNER ITERATIONS.
    ------------------------------------------------

 NO OUTPUT CONTROL FOR STRESS PERIOD   10   TIME STEP   14
 
 SOLVING FOR HEAD 
                                                   Max.-Head-Change                         Max.-Flux-Residual
  Residual-Control   Outer-Iter.   Inner-Iter.     Column Row Layer    Maximum-Head-Change  Column Row Layer    Maximum-Flux-Residual          L2-NORM 
          0                 1           2             1   13     1       0.8272985732E-02       1   13    1         0.4520567534E+00      0.1358745828E+01
          0                 2           2             4    7     1      -0.8151757275E-03       1   13    1        -0.4393987551E-01      0.1347429447E+00
          0                 3           1             4    7     1       0.7269946781E-04       4    7    1         0.3898419376E-02      0.1202036441E-01

    ------------------------------------------------
       NWT REQUIRED            3 OUTER ITERATIONS 
       AND A TOTAL OF          5 INNER ITERATIONS.
    ------------------------------------------------

 NO OUTPUT CONTROL FOR STRESS PERIOD   10   TIME STEP   15
 
 SOLVING FOR HEAD 
                                                   Max.-Head-Change                         Max.-Flux-Residual
  Residual-Control   Outer-Iter.   Inner-Iter.     Column Row Layer    Maximum-Head-Change  Column Row Layer    Maximum-Flux-Residual          L2-NORM 
          0                 1           2             4    7     1       0.8124658240E-02       1   13    1         0.4305714811E+00      0.1310703552E+01
          0                 2           2             4    7     1      -0.8050805327E-03       4    7    1        -0.4279184716E-01      0.1300552580E+00
          0                 3           1             4    7     1       0.7179915208E-04       4    7    1         0.3851266241E-02      0.1160899264E-01

    ------------------------------------------------
       NWT REQUIRED            3 OUTER ITERATIONS 
       AND A TOTAL OF          5 INNER ITERATIONS.
    ------------------------------------------------

 NO OUTPUT CONTROL FOR STRESS PERIOD   10   TIME STEP   16
 
 SOLVING FOR HEAD 
                                                   Max.-Head-Change                         Max.-Flux-Residual
  Residual-Control   Outer-Iter.   Inner-Iter.     Column Row Layer    Maximum-Head-Change  Column Row Layer    Maximum-Flux-Residual          L2-NORM 
          0                 1           2             4    7     1       0.8021947877E-02       4    7    1         0.4226244429E+00      0.1266064652E+01
          0                 2           2             4    7     1      -0.7949028899E-03       4    7    1        -0.4226249496E-01      0.1257171101E+00
          0                 3           1             4    7     1       0.7089148300E-04       4    7    1         0.3803624499E-02      0.1121349450E-01

    ------------------------------------------------
       NWT REQUIRED            3 OUTER ITERATIONS 
       AND A TOTAL OF          5 INNER ITERATIONS.
    ------------------------------------------------

 NO OUTPUT CONTROL FOR STRESS PERIOD   10   TIME STEP   17
 
 SOLVING FOR HEAD 
                                                   Max.-Head-Change                         Max.-Flux-Residual
  Residual-Control   Outer-Iter.   Inner-Iter.     Column Row Layer    Maximum-Head-Change  Column Row Layer    Maximum-Flux-Residual          L2-NORM 
          0                 1           2             4    7     1       0.7918343394E-02       4    7    1         0.4172732671E+00      0.1081114086E+01
          0                 2           2             7   13     1      -0.1900345522E-02       7   13    1        -0.1041666728E+00      0.1502653134E+00
          0                 3           2             7   13     1       0.1693969087E-03       7   13    1         0.9370601763E-02      0.1352261781E-01
          0                 4           1             7   13     1      -0.1343836458E-04       7   13    1        -0.7501884068E-03      0.1083000077E-02

    ------------------------------------------------
       NWT REQUIRED            4 OUTER ITERATIONS 
       AND A TOTAL OF          7 INNER ITERATIONS.
    ------------------------------------------------

 NO OUTPUT CONTROL FOR STRESS PERIOD   10   TIME STEP   18
 
 SOLVING FOR HEAD 
                                                   Max.-Head-Change                         Max.-Flux-Residual
  Residual-Control   Outer-Iter.   Inner-Iter.     Column Row Layer    Maximum-Head-Change  Column Row Layer    Maximum-Flux-Residual          L2-NORM 
          0                 1           2             4    7     1       0.7813870128E-02       4    7    1         0.4118661183E+00      0.1054808215E+01
          0                 2           2             4    7     1      -0.7742843061E-03       4    7    1        -0.4118666458E-01      0.1054688810E+00
          0                 3           1             4    7     1       0.6905266408E-04       4    7    1         0.3706799741E-02      0.9490639585E-02

    ------------------------------------------------
       NWT REQUIRED            3 OUTER ITERATIONS 
       AND A TOTAL OF          5 INNER ITERATIONS.
    ------------------------------------------------

 NO OUTPUT CONTROL FOR STRESS PERIOD   10   TIME STEP   19
 
 SOLVING FOR HEAD 
                                                   Max.-Head-Change                         Max.-Flux-Residual
  Residual-Control   Outer-Iter.   Inner-Iter.     Column Row Layer    Maximum-Head-Change  Column Row Layer    Maximum-Flux-Residual          L2-NORM 
          0                 1           2             4    7     1       0.7742979078E-02       4    7    1         0.4082055378E+00      0.1033254856E+01
          0                 2           2             4    7     1      -0.7672596627E-03       4    7    1        -0.4082060756E-01      0.1033164553E+00
          0                 3           1             4    7     1       0.6842618863E-04       4    7    1         0.3673854608E-02      0.9297596713E-02

    ------------------------------------------------
       NWT REQUIRED            3 OUTER ITERATIONS 
       AND A TOTAL OF          5 INNER ITERATIONS.
    ------------------------------------------------

 NO OUTPUT CONTROL FOR STRESS PERIOD   10   TIME STEP   20
 
 SOLVING FOR HEAD 
                                                   Max.-Head-Change                         Max.-Flux-Residual
  Residual-Control   Outer-Iter.   Inner-Iter.     Column Row Layer    Maximum-Head-Change  Column Row Layer    Maximum-Flux-Residual          L2-NORM 
          0                 1           2             4    7     1       0.7709060776E-02       4    7    1         0.4064681238E+00      0.1016790136E+01
          0                 2           2             4    7     1      -0.7638986864E-03       4    7    1        -0.4064686743E-01      0.1016720705E+00
          0                 3           1             4    7     1       0.6812644833E-04       4    7    1         0.3658218002E-02      0.9149910309E-02

    ------------------------------------------------
       NWT REQUIRED            3 OUTER ITERATIONS 
       AND A TOTAL OF          5 INNER ITERATIONS.
    ------------------------------------------------

 NO OUTPUT CONTROL FOR STRESS PERIOD   10   TIME STEP   21
 
 SOLVING FOR HEAD 
                                                   Max.-Head-Change                         Max.-Flux-Residual
  Residual-Control   Outer-Iter.   Inner-Iter.     Column Row Layer    Maximum-Head-Change  Column Row Layer    Maximum-Flux-Residual          L2-NORM 
          0                 1           2             4    7     1       0.7671262275E-02       4    7    1         0.4045227468E+00      0.1001065056E+01
          0                 2           2             4    7     1      -0.7601532146E-03       4    7    1        -0.4045233085E-01      0.1001013201E+00
          0                 3           1             4    7     1       0.6779241656E-04       4    7    1         0.3640709661E-02      0.9008676928E-02

    ------------------------------------------------
       NWT REQUIRED            3 OUTER ITERATIONS 
       AND A TOTAL OF          5 INNER ITERATIONS.
    ------------------------------------------------

 NO OUTPUT CONTROL FOR STRESS PERIOD   10   TIME STEP   22
 
 SOLVING FOR HEAD 
                                                   Max.-Head-Change                         Max.-Flux-Residual
  Residual-Control   Outer-Iter.   Inner-Iter.     Column Row Layer    Maximum-Head-Change  Column Row Layer    Maximum-Flux-Residual          L2-NORM 
          0                 1           2             4    7     1       0.7627172040E-02       4    7    1         0.4022424745E+00      0.9857502717E+00
          0                 2           2             4    7     1      -0.7557842865E-03       4    7    1        -0.4022430451E-01      0.9857126512E-01
          0                 3           1             4    7     1       0.6740278455E-04       4    7    1         0.3620187293E-02      0.8871069605E-02

    ------------------------------------------------
       NWT REQUIRED            3 OUTER ITERATIONS 
       AND A TOTAL OF          5 INNER ITERATIONS.
    ------------------------------------------------

 NO OUTPUT CONTROL FOR STRESS PERIOD   10   TIME STEP   23
 
 SOLVING FOR HEAD 
                                                   Max.-Head-Change                         Max.-Flux-Residual
  Residual-Control   Outer-Iter.   Inner-Iter.     Column Row Layer    Maximum-Head-Change  Column Row Layer    Maximum-Flux-Residual          L2-NORM 
          0                 1           2             4    7     1       0.7580797498E-02       4    7    1         0.3998370870E+00      0.9711479738E+00
          0                 2           2             4    7     1      -0.7511890014E-03       4    7    1        -0.3998376647E-01      0.9711218730E-01
          0                 3           1             4    7     1       0.6699296534E-04       4    7    1         0.3598538879E-02      0.8739952692E-02

    ------------------------------------------------
       NWT REQUIRED            3 OUTER ITERATIONS 
       AND A TOTAL OF          5 INNER ITERATIONS.
    ------------------------------------------------

 NO OUTPUT CONTROL FOR STRESS PERIOD   10   TIME STEP   24
 
 SOLVING FOR HEAD 
                                                   Max.-Head-Change                         Max.-Flux-Residual
  Residual-Control   Outer-Iter.   Inner-Iter.     Column Row Layer    Maximum-Head-Change  Column Row Layer    Maximum-Flux-Residual          L2-NORM 
          0                 1           2             4    7     1       0.7528831519E-02       4    7    1         0.3971346638E+00      0.1149851927E+01
          0                 2           2             4    7     1      -0.7460396531E-03       4    7    1        -0.3971352473E-01      0.1182830495E+00
          0                 3           1             4    7     1       0.6653373269E-04       4    7    1         0.3574217086E-02      0.1054881643E-01

    ------------------------------------------------
       NWT REQUIRED            3 OUTER ITERATIONS 
       AND A TOTAL OF          5 INNER ITERATIONS.
    ------------------------------------------------

 NO OUTPUT CONTROL FOR STRESS PERIOD   10   TIME STEP   25
 
 SOLVING FOR HEAD 
                                                   Max.-Head-Change                         Max.-Flux-Residual
  Residual-Control   Outer-Iter.   Inner-Iter.     Column Row Layer    Maximum-Head-Change  Column Row Layer    Maximum-Flux-Residual          L2-NORM 
          0                 1           2             4    7     1       0.7473865569E-02       4    7    1         0.3942705961E+00      0.1113562478E+01
          0                 2           2             4    7     1      -0.7405930335E-03       4    7    1        -0.3942711837E-01      0.1104370487E+00
          0                 3           1             4    7     1       0.6604798899E-04       4    7    1         0.3548440517E-02      0.9852814023E-02

    ------------------------------------------------
       NWT REQUIRED            3 OUTER ITERATIONS 
       AND A TOTAL OF          5 INNER ITERATIONS.
    ------------------------------------------------

 NO OUTPUT CONTROL FOR STRESS PERIOD   10   TIME STEP   26
 
 SOLVING FOR HEAD 
                                                   Max.-Head-Change                         Max.-Flux-Residual
  Residual-Control   Outer-Iter.   Inner-Iter.     Column Row Layer    Maximum-Head-Change  Column Row Layer    Maximum-Flux-Residual          L2-NORM 
          0                 1           2             4    7     1       0.7417396125E-02       4    7    1         0.3913236288E+00      0.1081496175E+01
          0                 2           2             4    7     1      -0.7349974289E-03       4    7    1        -0.3913242194E-01      0.1073338126E+00
          0                 3           1             4    7     1       0.6554895835E-04       4    7    1         0.3521917827E-02      0.9582525304E-02

    ------------------------------------------------
       NWT REQUIRED            3 OUTER ITERATIONS 
       AND A TOTAL OF          5 INNER ITERATIONS.
    ------------------------------------------------

 NO OUTPUT CONTROL FOR STRESS PERIOD   10   TIME STEP   27
 
 SOLVING FOR HEAD 
                                                   Max.-Head-Change                         Max.-Flux-Residual
  Residual-Control   Outer-Iter.   Inner-Iter.     Column Row Layer    Maximum-Head-Change  Column Row Layer    Maximum-Flux-Residual          L2-NORM 
          0                 1           2             4    7     1       0.7358334391E-02       4    7    1         0.3882365028E+00      0.1051937443E+01
          0                 2           2             4    7     1      -0.7291449499E-03       4    7    1        -0.3882370950E-01      0.1044700357E+00
          0                 3           1             4    7     1       0.6502701941E-04       4    7    1         0.3494133698E-02      0.9334499094E-02

    ------------------------------------------------
       NWT REQUIRED            3 OUTER ITERATIONS 
       AND A TOTAL OF          5 INNER ITERATIONS.
    ------------------------------------------------

 NO OUTPUT CONTROL FOR STRESS PERIOD   10   TIME STEP   28
 
 SOLVING FOR HEAD 
                                                   Max.-Head-Change                         Max.-Flux-Residual
  Residual-Control   Outer-Iter.   Inner-Iter.     Column Row Layer    Maximum-Head-Change  Column Row Layer    Maximum-Flux-Residual          L2-NORM 
          0                 1           2             4    7     1       0.7294823230E-02       4    7    1         0.3849136243E+00      0.1024385477E+01
          0                 2           2             4    7     1      -0.7228515717E-03       4    7    1        -0.3849142170E-01      0.1017967474E+00
          0                 3           1             4    7     1       0.6446575964E-04       4    7    1         0.3464227793E-02      0.9101646648E-02

    ------------------------------------------------
       NWT REQUIRED            3 OUTER ITERATIONS 
       AND A TOTAL OF          5 INNER ITERATIONS.
    ------------------------------------------------

 NO OUTPUT CONTROL FOR STRESS PERIOD   10   TIME STEP   29
 
 SOLVING FOR HEAD 
                                                   Max.-Head-Change                         Max.-Flux-Residual
  Residual-Control   Outer-Iter.   Inner-Iter.     Column Row Layer    Maximum-Head-Change  Column Row Layer    Maximum-Flux-Residual          L2-NORM 
          0                 1           2             4    7     1       0.7230394408E-02       4    7    1         0.3815419492E+00      0.9343850202E+00
          0                 2           2             4    7     1      -0.7164672596E-03       4    7    1        -0.3815425413E-01      0.9506863054E-01
          0                 3           1             4    7     1       0.6389639062E-04       4    7    1         0.3433882731E-02      0.8542505358E-02

    ------------------------------------------------
       NWT REQUIRED            3 OUTER ITERATIONS 
       AND A TOTAL OF          5 INNER ITERATIONS.
    ------------------------------------------------

 NO OUTPUT CONTROL FOR STRESS PERIOD   10   TIME STEP   30



 STREAM LISTING     PERIOD     10   STEP       30

 LAYER ROW COL. STREAM  RCH.  FLOW INTO     FLOW TO   FLOW OUT OF   OVRLND.     DIRECT     STREAM       STREAM     STREAM     STREAM   STREAMBED  STREAMBED
                SEG.NO.  NO.  STRM. RCH.    AQUIFER    STRM. RCH.    RUNOFF     PRECIP       ET          HEAD       DEPTH      WIDTH   CONDCTNC.   GRADIENT

   1    1    1     1     1    1.4863E+01  1.8611E-01   1.4677E+01  0.000E+00  0.000E+00  0.000E+00  1.09406E+03  1.008E+00  1.032E+01  4.644E-02  1.336E+00
   1    2    2     1     2    1.4677E+01  2.8686E-01   1.4390E+01  0.000E+00  0.000E+00  0.000E+00  1.08906E+03  1.003E+00  1.024E+01  7.166E-02  1.334E+00
   1    3    3     1     3    1.4390E+01  2.4331E-01   1.4147E+01  0.000E+00  0.000E+00  0.000E+00  1.08342E+03  9.976E-01  1.014E+01  6.087E-02  1.333E+00
   1    3    4     1     4    1.4147E+01  2.2296E-01   1.3924E+01  0.000E+00  0.000E+00  0.000E+00  1.07840E+03  9.928E-01  1.006E+01  5.584E-02  1.331E+00
   1    4    5     2     1    1.1924E+01  2.9396E-01   1.1630E+01  0.000E+00  0.000E+00  0.000E+00  1.07270E+03  7.687E-01  1.200E+01  7.800E-02  1.256E+00
   1    5    6     2     2    1.1630E+01  2.2551E-01   1.1404E+01  0.000E+00  0.000E+00  0.000E+00  1.06727E+03  7.585E-01  1.200E+01  6.000E-02  1.253E+00
   1    6    6     2     3    1.1404E+01  2.2497E-01   1.1179E+01  0.000E+00  0.000E+00  0.000E+00  1.06254E+03  7.496E-01  1.200E+01  6.000E-02  1.250E+00
   1    7    6     2     4    1.1179E+01  2.2443E-01   1.0955E+01  0.000E+00  0.000E+00  0.000E+00  1.05782E+03  7.406E-01  1.200E+01  6.000E-02  1.247E+00
   1    8    6     2     5    1.0955E+01  2.2389E-01   1.0731E+01  0.000E+00  0.000E+00  0.000E+00  1.05309E+03  7.315E-01  1.200E+01  6.000E-02  1.244E+00
   1    3    5     3     1    2.0000E+00  2.8252E-01   1.7175E+00  0.000E+00  0.000E+00  0.000E+00  1.07555E+03  1.909E+00  9.636E+00  7.227E-02  1.955E+00
   1    3    6     3     2    1.7175E+00  2.4905E-01   1.4684E+00  0.000E+00  0.000E+00  0.000E+00  1.07264E+03  1.727E+00  8.909E+00  6.682E-02  1.864E+00
   1    3    7     3     3    1.4684E+00  1.9718E-01   1.2712E+00  0.000E+00  0.000E+00  0.000E+00  1.06987E+03  1.555E+00  8.218E+00  5.547E-02  1.777E+00
   1    4    8     3     4    1.2712E+00  2.2567E-01   1.0456E+00  0.000E+00  0.000E+00  0.000E+00  1.06682E+03  1.364E+00  7.455E+00  6.709E-02  1.682E+00
   1    5    8     3     5    1.0456E+00  1.5790E-01   8.8768E-01  0.000E+00  0.000E+00  0.000E+00  1.06362E+03  1.164E+00  6.655E+00  4.991E-02  1.582E+00
   1    6    8     3     6    8.8768E-01  5.5980E-02   8.3170E-01  0.000E+00  0.000E+00  0.000E+00  1.06158E+03  1.036E+00  6.145E+00  1.844E-02  1.518E+00
   1    5   10     4     1    1.0000E+01  9.0919E-02   9.9091E+00  0.000E+00  0.000E+00  0.000E+00  1.07836E+03  6.368E-01  1.000E+01  2.500E-02  1.212E+00
   1    5    9     4     2    9.9091E+00  1.8158E-01   9.7275E+00  0.000E+00  0.000E+00  0.000E+00  1.07154E+03  6.315E-01  1.000E+01  5.000E-02  1.211E+00
   1    6    8     4     3    9.7275E+00  1.2689E-01   9.6006E+00  0.000E+00  0.000E+00  0.000E+00  1.06381E+03  6.256E-01  1.000E+01  3.500E-02  1.209E+00
   1    6    8     5     1    1.0432E+01  2.2686E-01   1.0205E+01  0.000E+00  0.000E+00  0.000E+00  1.05868E+03  6.790E-01  1.542E+01  6.166E-02  1.226E+00
   1    7    7     5     2    1.0205E+01  2.7894E-01   9.9265E+00  0.000E+00  0.000E+00  0.000E+00  1.05417E+03  6.732E-01  1.519E+01  7.594E-02  1.224E+00
   1    8    7     5     3    9.9265E+00  1.9221E-01   9.7343E+00  0.000E+00  0.000E+00  0.000E+00  1.04992E+03  6.676E-01  1.497E+01  5.241E-02  1.223E+00
   1    8    6     5     4    9.7343E+00  1.3577E-01   9.5985E+00  0.000E+00  0.000E+00  0.000E+00  1.04691E+03  6.637E-01  1.482E+01  3.706E-02  1.221E+00
   1    9    6     6     1    2.0330E+01  2.4448E-01   2.0085E+01  0.000E+00  0.000E+00  0.000E+00  1.04380E+03  1.075E+00  1.200E+01  6.000E-02  1.358E+00
   1   10    7     6     2    2.0085E+01  2.4401E-01   1.9841E+01  0.000E+00  0.000E+00  0.000E+00  1.03925E+03  1.067E+00  1.200E+01  6.000E-02  1.356E+00
   1   11    7     6     3    1.9841E+01  2.4354E-01   1.9597E+01  0.000E+00  0.000E+00  0.000E+00  1.03470E+03  1.059E+00  1.200E+01  6.000E-02  1.353E+00
   1   12    7     6     4    1.9597E+01  2.4307E-01   1.9354E+01  0.000E+00  0.000E+00  0.000E+00  1.03014E+03  1.051E+00  1.200E+01  6.000E-02  1.350E+00
   1   13    7     6     5    1.9354E+01 -1.5569E-02   1.9370E+01  0.000E+00  0.000E+00  0.000E+00  1.02696E+03  1.047E+00  1.200E+01  2.400E-01 -2.162E-02
   1   14    9     7     1    1.5000E+02  1.3381E+00   1.4866E+02  0.000E+00  0.000E+00  0.000E+00  1.03987E+03  2.288E+00  5.529E+01  5.593E-01  7.975E-01
   1   13    8     7     2    1.4866E+02  1.8397E+00   1.4682E+02  0.000E+00  0.000E+00  0.000E+00  1.03478E+03  2.279E+00  5.526E+01  6.148E-01  9.975E-01
   1   13    7     7     3    1.4682E+02  1.4901E+00   1.4533E+02  0.000E+00  0.000E+00  0.000E+00  1.02969E+03  2.270E+00  5.522E+01  5.584E-01  8.894E-01
   1   13    6     8     1    1.6470E+02  9.4089E-01   1.6376E+02  0.000E+00  0.000E+00  0.000E+00  1.02479E+03  2.914E+00  4.226E+01  4.306E-01  7.283E-01
   1   13    5     8     2    1.6376E+02  2.4321E-01   1.6352E+02  0.000E+00  0.000E+00  0.000E+00  1.01854E+03  2.910E+00  4.220E+01  4.300E-01  1.885E-01
   1   13    4     8     3    1.6352E+02 -2.1409E+00   1.6566E+02  0.000E+00  0.000E+00  0.000E+00  1.01229E+03  2.917E+00  4.229E+01  4.310E+00 -1.656E-01
   1   13    3     8     4    1.6566E+02 -3.3530E+00   1.6901E+02  0.000E+00  0.000E+00  0.000E+00  1.00606E+03  2.935E+00  4.255E+01  4.336E+00 -2.577E-01
   1   13    2     8     5    1.6901E+02 -2.3380E+00   1.7135E+02  0.000E+00  0.000E+00  0.000E+00  9.99828E+02  2.953E+00  4.282E+01  4.364E+00 -1.786E-01
   1   13    1     8     6    1.7135E+02 -1.5601E+00   1.7291E+02  0.000E+00  0.000E+00  0.000E+00  9.94841E+02  2.966E+00  4.301E+01  2.630E+00 -1.978E-01
   1    6    8     9     1    0.0000E+00  0.0000E+00   0.0000E+00  0.000E+00  0.000E+00  0.000E+00  1.07850E+03  0.000E+00  4.000E+00  0.000E+00  1.000E+00





UNSATURATED ZONE PACKAGE VOLUMETRIC BUDGET FOR  TIME STEP    30 STRESS PERIOD   10
  ------------------------------------------------------------------------------



     CUMULATIVE VOLUMES      L**3       RATES FOR THIS TIME STEP      L**3/T
     ------------------                 ------------------------

           IN:                                      IN:
           ---                                      ---
        INFILTRATION =    69752645.8242          INFILTRATION =           0.9053

          OUT:                                     OUT:
          ----                                     ----
              UZF ET =    47156292.7170                UZF ET =           1.6044
        UZF RECHARGE =       73224.0000          UZF RECHARGE =       0.0000E+00

            IN - OUT =    22523129.1072              IN - OUT =          -0.6991

          STORAGE:                                 STORAGE:
          --------                                 --------
      STORAGE CHANGE =    22522590.1650        STORAGE CHANGE =          -0.6991

 PERCENT DISCREPANCY IS DIFFERENCE BETWEEN IN-OUT MINUS CHANGE IN STORAGE
 DIVIDED BY THE AVERAGE OF IN AND OUT TIMES 100

 PERCENT DISCREPANCY =           0.00     PERCENT DISCREPANCY =           0.00






1
  VOLUMETRIC BUDGET FOR ENTIRE MODEL AT END OF TIME STEP   30, STRESS PERIOD  10
  ------------------------------------------------------------------------------

     CUMULATIVE VOLUMES      L**3       RATES FOR THIS TIME STEP      L**3/T
     ------------------                 ------------------------

           IN:                                      IN:
           ---                                      ---
    AWU WELLS            =    69679416.0000      AWU WELLS            =           0.9053
    DIVERSION SEGMENTS   =           0.0000      DIVERSION SEGMENTS   =           0.0000
    GW IRRIGATION        =           0.0000      GW IRRIGATION        =           0.0000
    SW IRRIGATION        =           0.0000      SW IRRIGATION        =           0.0000
    EFFICIENCY FACTOR GW =           0.0000      EFFICIENCY FACTOR GW =           0.0000
    EFFICIENCY FACTOR SW =           0.0000      EFFICIENCY FACTOR SW =           0.0000

                TOTAL IN =    69679416.0000                  TOTAL IN =           0.9053

          OUT:                                     OUT:
          ----                                     ----
    AWU WELLS            =           0.0000      AWU WELLS            =           0.0000
    DIVERSION SEGMENTS   =           0.0000      DIVERSION SEGMENTS   =           0.0000
    GW IRRIGATION        =    69679416.0000      GW IRRIGATION        =           0.9053
    SW IRRIGATION        =           0.0000      SW IRRIGATION        =           0.0000
    EFFICIENCY FACTOR GW =           0.0000      EFFICIENCY FACTOR GW =           0.0000
    EFFICIENCY FACTOR SW =           0.0000      EFFICIENCY FACTOR SW =           0.0000

               TOTAL OUT =    69679416.0000                 TOTAL OUT =           0.9053

                IN - OUT =           0.0000                  IN - OUT =           0.0000

     PERCENT DISCREPANCY =           0.00         PERCENT DISCREPANCY =           0.00



1
  VOLUMETRIC BUDGET FOR ENTIRE MODEL AT END OF TIME STEP   30, STRESS PERIOD  10
  ------------------------------------------------------------------------------

     CUMULATIVE VOLUMES      L**3       RATES FOR THIS TIME STEP      L**3/T
     ------------------                 ------------------------

           IN:                                      IN:
           ---                                      ---
             STORAGE     =    98717984.0000               STORAGE     =           3.1810
       CONSTANT HEAD     =           0.0000         CONSTANT HEAD     =           0.0000
     HEAD DEP BOUNDS     =     6785984.5000       HEAD DEP BOUNDS     =           0.2859
      STREAM LEAKAGE     =   292503392.0000        STREAM LEAKAGE     =          11.3606
        UZF RECHARGE     =       73223.9531          UZF RECHARGE     =           0.0000
               GW ET     =           0.0000                 GW ET     =           0.0000
     SURFACE LEAKAGE     =           0.0000       SURFACE LEAKAGE     =           0.0000
    AWU WELLS            =           0.0000      AWU WELLS            =           0.0000

                TOTAL IN =   398080576.0000                  TOTAL IN =          14.8275

          OUT:                                     OUT:
          ----                                     ----
             STORAGE     =    48754624.0000               STORAGE     =           2.7684
       CONSTANT HEAD     =           0.0000         CONSTANT HEAD     =           0.0000
     HEAD DEP BOUNDS     =     6807390.5000       HEAD DEP BOUNDS     =           0.2825
      STREAM LEAKAGE     =   219364832.0000        STREAM LEAKAGE     =           9.4075
        UZF RECHARGE     =           0.0000          UZF RECHARGE     =           0.0000
               GW ET     =    53467556.0000                 GW ET     =           1.4636
     SURFACE LEAKAGE     =           0.0000       SURFACE LEAKAGE     =           0.0000
    AWU WELLS            =    69679416.0000      AWU WELLS            =           0.9053

               TOTAL OUT =   398073824.0000                 TOTAL OUT =          14.8273

                IN - OUT =        6752.0000                  IN - OUT =       1.9836E-04

     PERCENT DISCREPANCY =           0.00         PERCENT DISCREPANCY =           0.00






         TIME SUMMARY AT END OF TIME STEP   30 IN STRESS PERIOD   10
                    SECONDS     MINUTES      HOURS       DAYS        YEARS
                    -----------------------------------------------------------
   TIME STEP LENGTH  87600.      1460.0      24.333      1.0139     2.77588E-03
 STRESS PERIOD TIME 2.62800E+06  43800.      730.00      30.417     8.32763E-02
         TOTAL TIME 2.37384E+07 3.95640E+05  6594.0      274.75     0.75222    
1
1
                            STRESS PERIOD NO.   11, LENGTH =   2628000.    
                            -----------------------------------------------

                              NUMBER OF TIME STEPS =    30

                               MULTIPLIER FOR DELT =     1.000

                            INITIAL TIME STEP SIZE =   87600.00    

 REUSING NON-PARAMETER GHB CELLS FROM LAST STRESS PERIOD

      2 GHB CELLS

 REUSING STREAM SEGMENT DATA FROM LAST STRESS PERIOD



            AREAL INFILTRATION RATE
 READING ON UNIT   19 WITH FORMAT: (10F4.0)            

            1           2           3           4           5           6           7           8           9          10
 ........................................................................................................................
   1    0.000       0.000       0.000       0.000       0.000       0.000       0.000       0.000       0.000       0.000    
   2    0.000       0.000       0.000       0.000       0.000       0.000       0.000       0.000       0.000       0.000    
   3    0.000       0.000       0.000       0.000       0.000       0.000       0.000       0.000       0.000       0.000    
   4    0.000       0.000       0.000       0.000       0.000       0.000       0.000       0.000       0.000       0.000    
   5    0.000       0.000       0.000       0.000       0.000       0.000       0.000       0.000       0.000       0.000    
   6    0.000       0.000       0.000       0.000       0.000       0.000       0.000       0.000       0.000       0.000    
   7    0.000       0.000       0.000       0.000       0.000       0.000       0.000       0.000       0.000       0.000    
   8    0.000       0.000       0.000       0.000       0.000       0.000       0.000       0.000       0.000       0.000    
   9    0.000       0.000       0.000       0.000       0.000       0.000       0.000       0.000       0.000       0.000    
  10    0.000       0.000       0.000       0.000       0.000       0.000       0.000       0.000       0.000       0.000    
  11    0.000       0.000       0.000       0.000       0.000       0.000       0.000       0.000       0.000       0.000    
  12    0.000       0.000       0.000       0.000       0.000       0.000       0.000       0.000       0.000       0.000    
  13    0.000       0.000       0.000       0.000       0.000       0.000       0.000       0.000       0.000       0.000    
  14    0.000       0.000       0.000       0.000       0.000       0.000       0.000       0.000       0.000       0.000    
  15    0.000       0.000       0.000       0.000       0.000       0.000       0.000       0.000       0.000       0.000    

                  ET RATE =  1.000000E-09

 USING ET EXTINCTION DEPTH FROM PREVIOUS STRESS PERIOD. CURRENT PERIOD IS:      11

 USING EXTINCTION WATER CONTENT FROM PREVIOUS STRESS PERIOD. CURRENT PERIOD IS:      11

 PROCESSING AWU STRESS PERIOD DATA

 READING AWU STRESS PERIOD DATA

 READING IRRIGATION WELL

 END PROCESSING AWU STRESS PERIOD DATA OPTIONS
 
 SOLVING FOR HEAD 
                                                   Max.-Head-Change                         Max.-Flux-Residual
  Residual-Control   Outer-Iter.   Inner-Iter.     Column Row Layer    Maximum-Head-Change  Column Row Layer    Maximum-Flux-Residual          L2-NORM 
          0                 1           2             4    7     1       0.1001163807E-01       4    7    1         0.5268652346E+00      0.1390924110E+01
          0                 2           2             4    7     1      -0.9920638067E-03       4    7    1        -0.5268662030E-01      0.1387599673E+00
          0                 3           1             4    7     1       0.8847479564E-04       4    7    1         0.4741795446E-02      0.1245685087E-01

    ------------------------------------------------
       NWT REQUIRED            3 OUTER ITERATIONS 
       AND A TOTAL OF          5 INNER ITERATIONS.
    ------------------------------------------------

 NO OUTPUT CONTROL FOR STRESS PERIOD   11   TIME STEP    1
 
 SOLVING FOR HEAD 
                                                   Max.-Head-Change                         Max.-Flux-Residual
  Residual-Control   Outer-Iter.   Inner-Iter.     Column Row Layer    Maximum-Head-Change  Column Row Layer    Maximum-Flux-Residual          L2-NORM 
          0                 1           2             4    7     1       0.9890304093E-02       4    7    1         0.5205869121E+00      0.1356539385E+01
          0                 2           2             4    7     1      -0.9800407234E-03       4    7    1        -0.5205878886E-01      0.1353526314E+00
          0                 3           1             4    7     1       0.8740254591E-04       4    7    1         0.4685290620E-02      0.1215341982E-01

    ------------------------------------------------
       NWT REQUIRED            3 OUTER ITERATIONS 
       AND A TOTAL OF          5 INNER ITERATIONS.
    ------------------------------------------------

 NO OUTPUT CONTROL FOR STRESS PERIOD   11   TIME STEP    2
 
 SOLVING FOR HEAD 
                                                   Max.-Head-Change                         Max.-Flux-Residual
  Residual-Control   Outer-Iter.   Inner-Iter.     Column Row Layer    Maximum-Head-Change  Column Row Layer    Maximum-Flux-Residual          L2-NORM 
          0                 1           2             4    7     1       0.9768802745E-02       4    7    1         0.5142909904E+00      0.1323990778E+01
          0                 2           2             4    7     1      -0.9680010509E-03       4    7    1        -0.5142919720E-01      0.1321262009E+00
          0                 3           1             4    7     1       0.8632881702E-04       4    7    1         0.4628627363E-02      0.1186570817E-01

    ------------------------------------------------
       NWT REQUIRED            3 OUTER ITERATIONS 
       AND A TOTAL OF          5 INNER ITERATIONS.
    ------------------------------------------------

 NO OUTPUT CONTROL FOR STRESS PERIOD   11   TIME STEP    3
 
 SOLVING FOR HEAD 
                                                   Max.-Head-Change                         Max.-Flux-Residual
  Residual-Control   Outer-Iter.   Inner-Iter.     Column Row Layer    Maximum-Head-Change  Column Row Layer    Maximum-Flux-Residual          L2-NORM 
          0                 1           2             4    7     1       0.9647033686E-02       4    7    1         0.5079715829E+00      0.1293118951E+01
          0                 2           2             4    7     1      -0.9559348459E-03       4    7    1        -0.5079725666E-01      0.1290651043E+00
          0                 3           1             4    7     1       0.8525272141E-04       4    7    1         0.4571752699E-02      0.1159327384E-01

    ------------------------------------------------
       NWT REQUIRED            3 OUTER ITERATIONS 
       AND A TOTAL OF          5 INNER ITERATIONS.
    ------------------------------------------------

 NO OUTPUT CONTROL FOR STRESS PERIOD   11   TIME STEP    4
 
 SOLVING FOR HEAD 
                                                   Max.-Head-Change                         Max.-Flux-Residual
  Residual-Control   Outer-Iter.   Inner-Iter.     Column Row Layer    Maximum-Head-Change  Column Row Layer    Maximum-Flux-Residual          L2-NORM 
          0                 1           2             4    7     1       0.9525160842E-02       4    7    1         0.5016382903E+00      0.1263784770E+01
          0                 2           2             4    7     1      -0.9438583537E-03       4    7    1        -0.5016392738E-01      0.1261541443E+00
          0                 3           1             4    7     1       0.8417570878E-04       4    7    1         0.4514753052E-02      0.1133269202E-01

    ------------------------------------------------
       NWT REQUIRED            3 OUTER ITERATIONS 
       AND A TOTAL OF          5 INNER ITERATIONS.
    ------------------------------------------------

 NO OUTPUT CONTROL FOR STRESS PERIOD   11   TIME STEP    5
 
 SOLVING FOR HEAD 
                                                   Max.-Head-Change                         Max.-Flux-Residual
  Residual-Control   Outer-Iter.   Inner-Iter.     Column Row Layer    Maximum-Head-Change  Column Row Layer    Maximum-Flux-Residual          L2-NORM 
          0                 1           2             4    7     1       0.9403338440E-02       4    7    1         0.4952996179E+00      0.1235860125E+01
          0                 2           2             4    7     1      -0.9317868566E-03       4    7    1        -0.4953005990E-01      0.1233823773E+00
          0                 3           1             4    7     1       0.8309914189E-04       4    7    1         0.4457704989E-02      0.1108531817E-01

    ------------------------------------------------
       NWT REQUIRED            3 OUTER ITERATIONS 
       AND A TOTAL OF          5 INNER ITERATIONS.
    ------------------------------------------------

 NO OUTPUT CONTROL FOR STRESS PERIOD   11   TIME STEP    6
 
 SOLVING FOR HEAD 
                                                   Max.-Head-Change                         Max.-Flux-Residual
  Residual-Control   Outer-Iter.   Inner-Iter.     Column Row Layer    Maximum-Head-Change  Column Row Layer    Maximum-Flux-Residual          L2-NORM 
          0                 1           2             4    7     1       0.9281710311E-02       4    7    1         0.4889635678E+00      0.1209242228E+01
          0                 2           2             4    7     1      -0.9197346066E-03       4    7    1        -0.4889645443E-01      0.1207390789E+00
          0                 3           1             4    7     1       0.8202429091E-04       4    7    1         0.4400680491E-02      0.1084908842E-01

    ------------------------------------------------
       NWT REQUIRED            3 OUTER ITERATIONS 
       AND A TOTAL OF          5 INNER ITERATIONS.
    ------------------------------------------------

 NO OUTPUT CONTROL FOR STRESS PERIOD   11   TIME STEP    7
 
 SOLVING FOR HEAD 
                                                   Max.-Head-Change                         Max.-Flux-Residual
  Residual-Control   Outer-Iter.   Inner-Iter.     Column Row Layer    Maximum-Head-Change  Column Row Layer    Maximum-Flux-Residual          L2-NORM 
          0                 1           2             4    7     1       0.9160404041E-02       4    7    1         0.4826376032E+00      0.1183824043E+01
          0                 2           2             4    7     1      -0.9077142481E-03       4    7    1        -0.4826385735E-01      0.1182142674E+00
          0                 3           1             4    7     1       0.8095228456E-04       4    7    1         0.4343746760E-02      0.1062354370E-01

    ------------------------------------------------
       NWT REQUIRED            3 OUTER ITERATIONS 
       AND A TOTAL OF          5 INNER ITERATIONS.
    ------------------------------------------------

 NO OUTPUT CONTROL FOR STRESS PERIOD   11   TIME STEP    8
 
 SOLVING FOR HEAD 
                                                   Max.-Head-Change                         Max.-Flux-Residual
  Residual-Control   Outer-Iter.   Inner-Iter.     Column Row Layer    Maximum-Head-Change  Column Row Layer    Maximum-Flux-Residual          L2-NORM 
          0                 1           2             4    7     1       0.9039546316E-02       4    7    1         0.4763283436E+00      0.1159519038E+01
          0                 2           2             4    7     1      -0.8957383335E-03       4    7    1        -0.4763293061E-01      0.1157992275E+00
          0                 3           1             4    7     1       0.7988424172E-04       4    7    1         0.4286963350E-02      0.1040745957E-01

    ------------------------------------------------
       NWT REQUIRED            3 OUTER ITERATIONS 
       AND A TOTAL OF          5 INNER ITERATIONS.
    ------------------------------------------------

 NO OUTPUT CONTROL FOR STRESS PERIOD   11   TIME STEP    9
 
 SOLVING FOR HEAD 
                                                   Max.-Head-Change                         Max.-Flux-Residual
  Residual-Control   Outer-Iter.   Inner-Iter.     Column Row Layer    Maximum-Head-Change  Column Row Layer    Maximum-Flux-Residual          L2-NORM 
          0                 1           2             4    7     1       0.8919238744E-02       4    7    1         0.4700423628E+00      0.1136249160E+01
          0                 2           2             4    7     1      -0.8838169321E-03       4    7    1        -0.4700433161E-01      0.1134861142E+00
          0                 3           1             4    7     1       0.7882106051E-04       4    7    1         0.4230389444E-02      0.1020053791E-01

    ------------------------------------------------
       NWT REQUIRED            3 OUTER ITERATIONS 
       AND A TOTAL OF          5 INNER ITERATIONS.
    ------------------------------------------------

 NO OUTPUT CONTROL FOR STRESS PERIOD   11   TIME STEP   10
 
 SOLVING FOR HEAD 
                                                   Max.-Head-Change                         Max.-Flux-Residual
  Residual-Control   Outer-Iter.   Inner-Iter.     Column Row Layer    Maximum-Head-Change  Column Row Layer    Maximum-Flux-Residual          L2-NORM 
          0                 1           2             4    7     1       0.8799858561E-02       4    7    1         0.4637997417E+00      0.1113954745E+01
          0                 2           2             4    7     1      -0.8719874247E-03       4    7    1        -0.4638006845E-01      0.1112696073E+00
          0                 3           1             4    7     1       0.7776607477E-04       4    7    1         0.4174205762E-02      0.1000232412E-01

    ------------------------------------------------
       NWT REQUIRED            3 OUTER ITERATIONS 
       AND A TOTAL OF          5 INNER ITERATIONS.
    ------------------------------------------------

 NO OUTPUT CONTROL FOR STRESS PERIOD   11   TIME STEP   11
 
 SOLVING FOR HEAD 
                                                   Max.-Head-Change                         Max.-Flux-Residual
  Residual-Control   Outer-Iter.   Inner-Iter.     Column Row Layer    Maximum-Head-Change  Column Row Layer    Maximum-Flux-Residual          L2-NORM 
          0                 1           2             4    7     1       0.8681206897E-02       4    7    1         0.4575904355E+00      0.1092532789E+01
          0                 2           2             4    7     1      -0.8602301055E-03       4    7    1        -0.4575913670E-01      0.1091379648E+00
          0                 3           1             4    7     1       0.7671752682E-04       4    7    1         0.4118321898E-02      0.9811752923E-02

    ------------------------------------------------
       NWT REQUIRED            3 OUTER ITERATIONS 
       AND A TOTAL OF          5 INNER ITERATIONS.
    ------------------------------------------------

 NO OUTPUT CONTROL FOR STRESS PERIOD   11   TIME STEP   12
 
 SOLVING FOR HEAD 
                                                   Max.-Head-Change                         Max.-Flux-Residual
  Residual-Control   Outer-Iter.   Inner-Iter.     Column Row Layer    Maximum-Head-Change  Column Row Layer    Maximum-Flux-Residual          L2-NORM 
          0                 1           2             4    7     1       0.8563104221E-02       4    7    1         0.4514041238E+00      0.1071961073E+01
          0                 2           2             4    7     1      -0.8485271844E-03       4    7    1        -0.4514050427E-01      0.1070914581E+00
          0                 3           1             4    7     1       0.7567383067E-04       4    7    1         0.4062645000E-02      0.9628566538E-02

    ------------------------------------------------
       NWT REQUIRED            3 OUTER ITERATIONS 
       AND A TOTAL OF          5 INNER ITERATIONS.
    ------------------------------------------------

 NO OUTPUT CONTROL FOR STRESS PERIOD   11   TIME STEP   13
 
 SOLVING FOR HEAD 
                                                   Max.-Head-Change                         Max.-Flux-Residual
  Residual-Control   Outer-Iter.   Inner-Iter.     Column Row Layer    Maximum-Head-Change  Column Row Layer    Maximum-Flux-Residual          L2-NORM 
          0                 1           2             4    7     1       0.8446176313E-02       4    7    1         0.4452759225E+00      0.1052164630E+01
          0                 2           2             4    7     1      -0.8369406710E-03       4    7    1        -0.4452768283E-01      0.1051213003E+00
          0                 3           1             4    7     1       0.7464051522E-04       4    7    1         0.4007491058E-02      0.9452071132E-02

    ------------------------------------------------
       NWT REQUIRED            3 OUTER ITERATIONS 
       AND A TOTAL OF          5 INNER ITERATIONS.
    ------------------------------------------------

 NO OUTPUT CONTROL FOR STRESS PERIOD   11   TIME STEP   14
 
 SOLVING FOR HEAD 
                                                   Max.-Head-Change                         Max.-Flux-Residual
  Residual-Control   Outer-Iter.   Inner-Iter.     Column Row Layer    Maximum-Head-Change  Column Row Layer    Maximum-Flux-Residual          L2-NORM 
          0                 1           2             4    7     1       0.8330206322E-02       4    7    1         0.4391938701E+00      0.1033094379E+01
          0                 2           2             4    7     1      -0.8254490776E-03       4    7    1        -0.4391947619E-01      0.1032221689E+00
          0                 3           1             4    7     1       0.7361566561E-04       4    7    1         0.3952752481E-02      0.9281811336E-02

    ------------------------------------------------
       NWT REQUIRED            3 OUTER ITERATIONS 
       AND A TOTAL OF          5 INNER ITERATIONS.
    ------------------------------------------------

 NO OUTPUT CONTROL FOR STRESS PERIOD   11   TIME STEP   15
 
 SOLVING FOR HEAD 
                                                   Max.-Head-Change                         Max.-Flux-Residual
  Residual-Control   Outer-Iter.   Inner-Iter.     Column Row Layer    Maximum-Head-Change  Column Row Layer    Maximum-Flux-Residual          L2-NORM 
          0                 1           2             4    7     1       0.8215251880E-02       4    7    1         0.4331615252E+00      0.1014706085E+01
          0                 2           2             4    7     1      -0.8140581153E-03       4    7    1        -0.4331624026E-01      0.1013911537E+00
          0                 3           1             4    7     1       0.7259979047E-04       4    7    1         0.3898461264E-02      0.9117764841E-02

    ------------------------------------------------
       NWT REQUIRED            3 OUTER ITERATIONS 
       AND A TOTAL OF          5 INNER ITERATIONS.
    ------------------------------------------------

 NO OUTPUT CONTROL FOR STRESS PERIOD   11   TIME STEP   16
 
 SOLVING FOR HEAD 
                                                   Max.-Head-Change                         Max.-Flux-Residual
  Residual-Control   Outer-Iter.   Inner-Iter.     Column Row Layer    Maximum-Head-Change  Column Row Layer    Maximum-Flux-Residual          L2-NORM 
          0                 1           2             4    7     1       0.8101379364E-02       4    7    1         0.4271818779E+00      0.9969785433E+00
          0                 2           2             4    7     1      -0.8027743609E-03       4    7    1        -0.4271827402E-01      0.9962511630E-01
          0                 3           1             4    7     1       0.7159347649E-04       4    7    1         0.3844644305E-02      0.8959412287E-02

    ------------------------------------------------
       NWT REQUIRED            3 OUTER ITERATIONS 
       AND A TOTAL OF          5 INNER ITERATIONS.
    ------------------------------------------------

 NO OUTPUT CONTROL FOR STRESS PERIOD   11   TIME STEP   17
 
 SOLVING FOR HEAD 
                                                   Max.-Head-Change                         Max.-Flux-Residual
  Residual-Control   Outer-Iter.   Inner-Iter.     Column Row Layer    Maximum-Head-Change  Column Row Layer    Maximum-Flux-Residual          L2-NORM 
          0                 1           2             4    7     1       0.7988899555E-02       4    7    1         0.4212731842E+00      0.9798394282E+00
          0                 2           2             4    7     1      -0.7916286106E-03       4    7    1        -0.4212740313E-01      0.9791761735E-01
          0                 3           1             4    7     1       0.7059946958E-04       4    7    1         0.3791465911E-02      0.8806545723E-02

    ------------------------------------------------
       NWT REQUIRED            3 OUTER ITERATIONS 
       AND A TOTAL OF          5 INNER ITERATIONS.
    ------------------------------------------------

 NO OUTPUT CONTROL FOR STRESS PERIOD   11   TIME STEP   18
 
 SOLVING FOR HEAD 
                                                   Max.-Head-Change                         Max.-Flux-Residual
  Residual-Control   Outer-Iter.   Inner-Iter.     Column Row Layer    Maximum-Head-Change  Column Row Layer    Maximum-Flux-Residual          L2-NORM 
          0                 1           2             4    7     1       0.7877301624E-02       4    7    1         0.4154071343E+00      0.9632715512E+00
          0                 2           2             4    7     1      -0.7805702462E-03       4    7    1        -0.4154079656E-01      0.9626622435E-01
          0                 3           1             4    7     1       0.6961325659E-04       4    7    1         0.3738671354E-02      0.8658284851E-02

    ------------------------------------------------
       NWT REQUIRED            3 OUTER ITERATIONS 
       AND A TOTAL OF          5 INNER ITERATIONS.
    ------------------------------------------------

 NO OUTPUT CONTROL FOR STRESS PERIOD   11   TIME STEP   19
 
 SOLVING FOR HEAD 
                                                   Max.-Head-Change                         Max.-Flux-Residual
  Residual-Control   Outer-Iter.   Inner-Iter.     Column Row Layer    Maximum-Head-Change  Column Row Layer    Maximum-Flux-Residual          L2-NORM 
          0                 1           2             4    7     1       0.7767188865E-02       4    7    1         0.4096164694E+00      0.9472672101E+00
          0                 2           2             4    7     1      -0.7696590483E-03       4    7    1        -0.4096172849E-01      0.9467129101E-01
          0                 3           1             4    7     1       0.6864016798E-04       4    7    1         0.3686555224E-02      0.8515098752E-02

    ------------------------------------------------
       NWT REQUIRED            3 OUTER ITERATIONS 
       AND A TOTAL OF          5 INNER ITERATIONS.
    ------------------------------------------------

 NO OUTPUT CONTROL FOR STRESS PERIOD   11   TIME STEP   20
 
 SOLVING FOR HEAD 
                                                   Max.-Head-Change                         Max.-Flux-Residual
  Residual-Control   Outer-Iter.   Inner-Iter.     Column Row Layer    Maximum-Head-Change  Column Row Layer    Maximum-Flux-Residual          L2-NORM 
          0                 1           2             4    7     1       0.7658299484E-02       4    7    1         0.4038880578E+00      0.9317498917E+00
          0                 2           2             4    7     1      -0.7588690758E-03       4    7    1        -0.4038888572E-01      0.9312403914E-01
          0                 3           1             4    7     1       0.6767789058E-04       4    7    1         0.3634999375E-02      0.8376350735E-02

    ------------------------------------------------
       NWT REQUIRED            3 OUTER ITERATIONS 
       AND A TOTAL OF          5 INNER ITERATIONS.
    ------------------------------------------------

 NO OUTPUT CONTROL FOR STRESS PERIOD   11   TIME STEP   21
 
 SOLVING FOR HEAD 
                                                   Max.-Head-Change                         Max.-Flux-Residual
  Residual-Control   Outer-Iter.   Inner-Iter.     Column Row Layer    Maximum-Head-Change  Column Row Layer    Maximum-Flux-Residual          L2-NORM 
          0                 1           2             4    7     1       0.7550666061E-02       4    7    1         0.3982231266E+00      0.9167135714E+00
          0                 2           2             4    7     1      -0.7482035574E-03       4    7    1        -0.3982239098E-01      0.9162483206E-01
          0                 3           1             4    7     1       0.6672671294E-04       4    7    1         0.3584014880E-02      0.8241866266E-02

    ------------------------------------------------
       NWT REQUIRED            3 OUTER ITERATIONS 
       AND A TOTAL OF          5 INNER ITERATIONS.
    ------------------------------------------------

 NO OUTPUT CONTROL FOR STRESS PERIOD   11   TIME STEP   22
 
 SOLVING FOR HEAD 
                                                   Max.-Head-Change                         Max.-Flux-Residual
  Residual-Control   Outer-Iter.   Inner-Iter.     Column Row Layer    Maximum-Head-Change  Column Row Layer    Maximum-Flux-Residual          L2-NORM 
          0                 1           2             4    7     1       0.7444311203E-02       4    7    1         0.3926233667E+00      0.9021463891E+00
          0                 2           2             4    7     1      -0.7376647328E-03       4    7    1        -0.3926241335E-01      0.9017191850E-01
          0                 3           1             4    7     1       0.6578683325E-04       4    7    1         0.3533616908E-02      0.8111552445E-02

    ------------------------------------------------
       NWT REQUIRED            3 OUTER ITERATIONS 
       AND A TOTAL OF          5 INNER ITERATIONS.
    ------------------------------------------------

 NO OUTPUT CONTROL FOR STRESS PERIOD   11   TIME STEP   23
 
 SOLVING FOR HEAD 
                                                   Max.-Head-Change                         Max.-Flux-Residual
  Residual-Control   Outer-Iter.   Inner-Iter.     Column Row Layer    Maximum-Head-Change  Column Row Layer    Maximum-Flux-Residual          L2-NORM 
          0                 1           2             4    7     1       0.7339524677E-02       4    7    1         0.3871047638E+00      0.8879959471E+00
          0                 2           2             4    7     1      -0.7272813159E-03       4    7    1        -0.3871055145E-01      0.8876027202E-01
          0                 3           1             4    7     1       0.6486081347E-04       4    7    1         0.3483949333E-02      0.7984615155E-02

    ------------------------------------------------
       NWT REQUIRED            3 OUTER ITERATIONS 
       AND A TOTAL OF          5 INNER ITERATIONS.
    ------------------------------------------------

 NO OUTPUT CONTROL FOR STRESS PERIOD   11   TIME STEP   24
 
 SOLVING FOR HEAD 
                                                   Max.-Head-Change                         Max.-Flux-Residual
  Residual-Control   Outer-Iter.   Inner-Iter.     Column Row Layer    Maximum-Head-Change  Column Row Layer    Maximum-Flux-Residual          L2-NORM 
          0                 1           2             4    7     1       0.7235777890E-02       4    7    1         0.3816379140E+00      0.8742750505E+00
          0                 2           2             4    7     1      -0.7170009274E-03       4    7    1        -0.3816386483E-01      0.8739189519E-01
          0                 3           1             4    7     1       0.6394398230E-04       4    7    1         0.3434747541E-02      0.7861858989E-02

    ------------------------------------------------
       NWT REQUIRED            3 OUTER ITERATIONS 
       AND A TOTAL OF          5 INNER ITERATIONS.
    ------------------------------------------------

 NO OUTPUT CONTROL FOR STRESS PERIOD   11   TIME STEP   25
 
 SOLVING FOR HEAD 
                                                   Max.-Head-Change                         Max.-Flux-Residual
  Residual-Control   Outer-Iter.   Inner-Iter.     Column Row Layer    Maximum-Head-Change  Column Row Layer    Maximum-Flux-Residual          L2-NORM 
          0                 1           2             4    7     1       0.7133636048E-02       4    7    1         0.3762546430E+00      0.8609413101E+00
          0                 2           2             4    7     1      -0.7068795747E-03       4    7    1        -0.3762553610E-01      0.8606035379E-01
          0                 3           1             4    7     1       0.6304133399E-04       4    7    1         0.3386297965E-02      0.7742439487E-02

    ------------------------------------------------
       NWT REQUIRED            3 OUTER ITERATIONS 
       AND A TOTAL OF          5 INNER ITERATIONS.
    ------------------------------------------------

 NO OUTPUT CONTROL FOR STRESS PERIOD   11   TIME STEP   26
 
 SOLVING FOR HEAD 
                                                   Max.-Head-Change                         Max.-Flux-Residual
  Residual-Control   Outer-Iter.   Inner-Iter.     Column Row Layer    Maximum-Head-Change  Column Row Layer    Maximum-Flux-Residual          L2-NORM 
          0                 1           2             4    7     1       0.7032825085E-02       4    7    1         0.3709398372E+00      0.8479844935E+00
          0                 2           2             4    7     1      -0.6968900999E-03       4    7    1        -0.3709405390E-01      0.8476804099E-01
          0                 3           1             4    7     1       0.6215044705E-04       4    7    1         0.3338464569E-02      0.7626352028E-02

    ------------------------------------------------
       NWT REQUIRED            3 OUTER ITERATIONS 
       AND A TOTAL OF          5 INNER ITERATIONS.
    ------------------------------------------------

 NO OUTPUT CONTROL FOR STRESS PERIOD   11   TIME STEP   27
 
 SOLVING FOR HEAD 
                                                   Max.-Head-Change                         Max.-Flux-Residual
  Residual-Control   Outer-Iter.   Inner-Iter.     Column Row Layer    Maximum-Head-Change  Column Row Layer    Maximum-Flux-Residual          L2-NORM 
          0                 1           2             4    7     1       0.6933625301E-02       4    7    1         0.3657089035E+00      0.8353899444E+00
          0                 2           2             4    7     1      -0.6870602791E-03       4    7    1        -0.3657095895E-01      0.8351119314E-01
          0                 3           1             4    7     1       0.6127379871E-04       4    7    1         0.3291386053E-02      0.7513454618E-02

    ------------------------------------------------
       NWT REQUIRED            3 OUTER ITERATIONS 
       AND A TOTAL OF          5 INNER ITERATIONS.
    ------------------------------------------------

 NO OUTPUT CONTROL FOR STRESS PERIOD   11   TIME STEP   28
 
 SOLVING FOR HEAD 
                                                   Max.-Head-Change                         Max.-Flux-Residual
  Residual-Control   Outer-Iter.   Inner-Iter.     Column Row Layer    Maximum-Head-Change  Column Row Layer    Maximum-Flux-Residual          L2-NORM 
          0                 1           2             4    7     1       0.6835485156E-02       4    7    1         0.3605319440E+00      0.8231166074E+00
          0                 2           2             4    7     1      -0.6773354586E-03       4    7    1        -0.3605326141E-01      0.8228604705E-01
          0                 3           1             4    7     1       0.6040651409E-04       4    7    1         0.3244793275E-02      0.7403382197E-02

    ------------------------------------------------
       NWT REQUIRED            3 OUTER ITERATIONS 
       AND A TOTAL OF          5 INNER ITERATIONS.
    ------------------------------------------------

 NO OUTPUT CONTROL FOR STRESS PERIOD   11   TIME STEP   29
 
 SOLVING FOR HEAD 
                                                   Max.-Head-Change                         Max.-Flux-Residual
  Residual-Control   Outer-Iter.   Inner-Iter.     Column Row Layer    Maximum-Head-Change  Column Row Layer    Maximum-Flux-Residual          L2-NORM 
          0                 1           2             4    7     1       0.6738913375E-02       4    7    1         0.3554395969E+00      0.8317169725E+00
          0                 2           2             4    7     1      -0.6677882713E-03       4    7    1        -0.3554402515E-01      0.8320741775E-01
          0                 3           1             4    7     1       0.5955507126E-04       4    7    1         0.3198962007E-02      0.7488645673E-02

    ------------------------------------------------
       NWT REQUIRED            3 OUTER ITERATIONS 
       AND A TOTAL OF          5 INNER ITERATIONS.
    ------------------------------------------------

 NO OUTPUT CONTROL FOR STRESS PERIOD   11   TIME STEP   30



 STREAM LISTING     PERIOD     11   STEP       30

 LAYER ROW COL. STREAM  RCH.  FLOW INTO     FLOW TO   FLOW OUT OF   OVRLND.     DIRECT     STREAM       STREAM     STREAM     STREAM   STREAMBED  STREAMBED
                SEG.NO.  NO.  STRM. RCH.    AQUIFER    STRM. RCH.    RUNOFF     PRECIP       ET          HEAD       DEPTH      WIDTH   CONDCTNC.   GRADIENT

   1    1    1     1     1    4.3470E+00  9.1790E-02   4.2552E+00  0.000E+00  0.000E+00  0.000E+00  1.09376E+03  7.122E-01  5.495E+00  2.473E-02  1.237E+00
   1    2    2     1     2    4.2552E+00  1.4068E-01   4.1146E+00  0.000E+00  0.000E+00  0.000E+00  1.08877E+03  7.076E-01  5.420E+00  3.794E-02  1.236E+00
   1    3    3     1     3    4.1146E+00  1.1854E-01   3.9960E+00  0.000E+00  0.000E+00  0.000E+00  1.08312E+03  7.023E-01  5.336E+00  3.202E-02  1.234E+00
   1    3    4     1     4    3.9960E+00  1.0820E-01   3.8878E+00  0.000E+00  0.000E+00  0.000E+00  1.07810E+03  6.964E-01  5.274E+00  2.927E-02  1.232E+00
   1    4    5     2     1    1.8878E+00  2.5317E-01   1.6347E+00  0.000E+00  0.000E+00  0.000E+00  1.07218E+03  2.458E-01  1.200E+01  7.800E-02  1.082E+00
   1    5    6     2     2    1.6347E+00  1.9360E-01   1.4411E+00  0.000E+00  0.000E+00  0.000E+00  1.06674E+03  2.266E-01  1.200E+01  6.000E-02  1.076E+00
   1    6    6     2     3    1.4411E+00  1.9255E-01   1.2485E+00  0.000E+00  0.000E+00  0.000E+00  1.06200E+03  2.091E-01  1.200E+01  6.000E-02  1.070E+00
   1    7    6     2     4    1.2485E+00  1.9144E-01   1.0571E+00  0.000E+00  0.000E+00  0.000E+00  1.05727E+03  1.906E-01  1.200E+01  6.000E-02  1.064E+00
   1    8    6     2     5    1.0571E+00  1.9026E-01   8.6681E-01  0.000E+00  0.000E+00  0.000E+00  1.05253E+03  1.710E-01  1.200E+01  6.000E-02  1.057E+00
   1    3    5     3     1    2.0000E+00  2.8252E-01   1.7175E+00  0.000E+00  0.000E+00  0.000E+00  1.07555E+03  1.909E+00  9.636E+00  7.227E-02  1.955E+00
   1    3    6     3     2    1.7175E+00  2.4905E-01   1.4684E+00  0.000E+00  0.000E+00  0.000E+00  1.07264E+03  1.727E+00  8.909E+00  6.682E-02  1.864E+00
   1    3    7     3     3    1.4684E+00  1.9718E-01   1.2712E+00  0.000E+00  0.000E+00  0.000E+00  1.06987E+03  1.555E+00  8.218E+00  5.547E-02  1.777E+00
   1    4    8     3     4    1.2712E+00  2.2567E-01   1.0456E+00  0.000E+00  0.000E+00  0.000E+00  1.06682E+03  1.364E+00  7.455E+00  6.709E-02  1.682E+00
   1    5    8     3     5    1.0456E+00  1.5790E-01   8.8768E-01  0.000E+00  0.000E+00  0.000E+00  1.06362E+03  1.164E+00  6.655E+00  4.991E-02  1.582E+00
   1    6    8     3     6    8.8768E-01  5.5980E-02   8.3170E-01  0.000E+00  0.000E+00  0.000E+00  1.06158E+03  1.036E+00  6.145E+00  1.844E-02  1.518E+00
   1    5   10     4     1    1.0000E+01  9.0919E-02   9.9091E+00  0.000E+00  0.000E+00  0.000E+00  1.07836E+03  6.368E-01  1.000E+01  2.500E-02  1.212E+00
   1    5    9     4     2    9.9091E+00  1.8158E-01   9.7275E+00  0.000E+00  0.000E+00  0.000E+00  1.07154E+03  6.315E-01  1.000E+01  5.000E-02  1.211E+00
   1    6    8     4     3    9.7275E+00  1.2689E-01   9.6006E+00  0.000E+00  0.000E+00  0.000E+00  1.06381E+03  6.256E-01  1.000E+01  3.500E-02  1.209E+00
   1    6    8     5     1    1.0432E+01  2.2686E-01   1.0205E+01  0.000E+00  0.000E+00  0.000E+00  1.05868E+03  6.790E-01  1.542E+01  6.166E-02  1.226E+00
   1    7    7     5     2    1.0205E+01  2.7894E-01   9.9265E+00  0.000E+00  0.000E+00  0.000E+00  1.05417E+03  6.732E-01  1.519E+01  7.594E-02  1.224E+00
   1    8    7     5     3    9.9265E+00  1.9221E-01   9.7343E+00  0.000E+00  0.000E+00  0.000E+00  1.04992E+03  6.676E-01  1.497E+01  5.241E-02  1.223E+00
   1    8    6     5     4    9.7343E+00  1.3577E-01   9.5985E+00  0.000E+00  0.000E+00  0.000E+00  1.04691E+03  6.637E-01  1.482E+01  3.706E-02  1.221E+00
   1    9    6     6     1    1.0465E+01  2.2317E-01   1.0242E+01  0.000E+00  0.000E+00  0.000E+00  1.04345E+03  7.195E-01  1.200E+01  6.000E-02  1.240E+00
   1   10    7     6     2    1.0242E+01  2.2261E-01   1.0020E+01  0.000E+00  0.000E+00  0.000E+00  1.03889E+03  7.102E-01  1.200E+01  6.000E-02  1.237E+00
   1   11    7     6     3    1.0020E+01  2.2205E-01   9.7975E+00  0.000E+00  0.000E+00  0.000E+00  1.03434E+03  7.008E-01  1.200E+01  6.000E-02  1.234E+00
   1   12    7     6     4    9.7975E+00  2.2148E-01   9.5760E+00  0.000E+00  0.000E+00  0.000E+00  1.02978E+03  6.913E-01  1.200E+01  6.000E-02  1.230E+00
   1   13    7     6     5    9.5760E+00 -1.0318E-01   9.6792E+00  0.000E+00  0.000E+00  0.000E+00  1.02660E+03  6.888E-01  1.200E+01  2.400E-01 -1.433E-01
   1   14    9     7     1    1.5000E+02  1.3384E+00   1.4866E+02  0.000E+00  0.000E+00  0.000E+00  1.03987E+03  2.288E+00  5.529E+01  5.593E-01  7.976E-01
   1   13    8     7     2    1.4866E+02  1.8409E+00   1.4682E+02  0.000E+00  0.000E+00  0.000E+00  1.03478E+03  2.279E+00  5.526E+01  6.148E-01  9.981E-01
   1   13    7     7     3    1.4682E+02  1.4866E+00   1.4533E+02  0.000E+00  0.000E+00  0.000E+00  1.02969E+03  2.270E+00  5.522E+01  5.584E-01  8.873E-01
   1   13    6     8     1    1.5501E+02  8.7021E-01   1.5414E+02  0.000E+00  0.000E+00  0.000E+00  1.02472E+03  2.849E+00  4.131E+01  4.209E-01  6.891E-01
   1   13    5     8     2    1.5414E+02  1.5429E-01   1.5399E+02  0.000E+00  0.000E+00  0.000E+00  1.01847E+03  2.845E+00  4.126E+01  4.204E-01  1.223E-01
   1   13    4     8     3    1.5399E+02 -2.5592E+00   1.5655E+02  0.000E+00  0.000E+00  0.000E+00  1.01223E+03  2.854E+00  4.138E+01  4.216E+00 -2.023E-01
   1   13    3     8     4    1.5655E+02 -3.7130E+00   1.6026E+02  0.000E+00  0.000E+00  0.000E+00  1.00600E+03  2.875E+00  4.169E+01  4.248E+00 -2.913E-01
   1   13    2     8     5    1.6026E+02 -2.6044E+00   1.6287E+02  0.000E+00  0.000E+00  0.000E+00  9.99771E+02  2.896E+00  4.200E+01  4.280E+00 -2.028E-01
   1   13    1     8     6    1.6287E+02 -1.9183E+00   1.6478E+02  0.000E+00  0.000E+00  0.000E+00  9.94786E+02  2.912E+00  4.222E+01  2.581E+00 -2.477E-01
   1    6    8     9     1    0.0000E+00  0.0000E+00   0.0000E+00  0.000E+00  0.000E+00  0.000E+00  1.07850E+03  0.000E+00  4.000E+00  0.000E+00  1.000E+00





UNSATURATED ZONE PACKAGE VOLUMETRIC BUDGET FOR  TIME STEP    30 STRESS PERIOD   11
  ------------------------------------------------------------------------------



     CUMULATIVE VOLUMES      L**3       RATES FOR THIS TIME STEP      L**3/T
     ------------------                 ------------------------

           IN:                                      IN:
           ---                                      ---
        INFILTRATION =    69752645.8242          INFILTRATION =       0.0000E+00

          OUT:                                     OUT:
          ----                                     ----
              UZF ET =    47448772.3000                UZF ET =           0.1146
        UZF RECHARGE =       73224.0000          UZF RECHARGE =       0.0000E+00

            IN - OUT =    22230649.5242              IN - OUT =          -0.1146

          STORAGE:                                 STORAGE:
          --------                                 --------
      STORAGE CHANGE =    22230308.5715        STORAGE CHANGE =          -0.1146

 PERCENT DISCREPANCY IS DIFFERENCE BETWEEN IN-OUT MINUS CHANGE IN STORAGE
 DIVIDED BY THE AVERAGE OF IN AND OUT TIMES 100

 PERCENT DISCREPANCY =           0.00     PERCENT DISCREPANCY =           0.00






1
  VOLUMETRIC BUDGET FOR ENTIRE MODEL AT END OF TIME STEP   30, STRESS PERIOD  11
  ------------------------------------------------------------------------------

     CUMULATIVE VOLUMES      L**3       RATES FOR THIS TIME STEP      L**3/T
     ------------------                 ------------------------

           IN:                                      IN:
           ---                                      ---
    AWU WELLS            =    69679416.0000      AWU WELLS            =           0.0000
    DIVERSION SEGMENTS   =           0.0000      DIVERSION SEGMENTS   =           0.0000
    GW IRRIGATION        =           0.0000      GW IRRIGATION        =           0.0000
    SW IRRIGATION        =           0.0000      SW IRRIGATION        =           0.0000
    EFFICIENCY FACTOR GW =           0.0000      EFFICIENCY FACTOR GW =           0.0000
    EFFICIENCY FACTOR SW =           0.0000      EFFICIENCY FACTOR SW =           0.0000

                TOTAL IN =    69679416.0000                  TOTAL IN =           0.0000

          OUT:                                     OUT:
          ----                                     ----
    AWU WELLS            =           0.0000      AWU WELLS            =           0.0000
    DIVERSION SEGMENTS   =           0.0000      DIVERSION SEGMENTS   =           0.0000
    GW IRRIGATION        =    69679416.0000      GW IRRIGATION        =           0.0000
    SW IRRIGATION        =           0.0000      SW IRRIGATION        =           0.0000
    EFFICIENCY FACTOR GW =           0.0000      EFFICIENCY FACTOR GW =           0.0000
    EFFICIENCY FACTOR SW =           0.0000      EFFICIENCY FACTOR SW =           0.0000

               TOTAL OUT =    69679416.0000                 TOTAL OUT =           0.0000

                IN - OUT =           0.0000                  IN - OUT =           0.0000

     PERCENT DISCREPANCY =           0.00         PERCENT DISCREPANCY =           0.00



1
  VOLUMETRIC BUDGET FOR ENTIRE MODEL AT END OF TIME STEP   30, STRESS PERIOD  11
  ------------------------------------------------------------------------------

     CUMULATIVE VOLUMES      L**3       RATES FOR THIS TIME STEP      L**3/T
     ------------------                 ------------------------

           IN:                                      IN:
           ---                                      ---
             STORAGE     =   106612512.0000               STORAGE     =           2.8182
       CONSTANT HEAD     =           0.0000         CONSTANT HEAD     =           0.0000
     HEAD DEP BOUNDS     =     7537387.0000       HEAD DEP BOUNDS     =           0.2859
      STREAM LEAKAGE     =   320693728.0000        STREAM LEAKAGE     =          10.4613
        UZF RECHARGE     =       73223.9531          UZF RECHARGE     =           0.0000
               GW ET     =           0.0000                 GW ET     =           0.0000
     SURFACE LEAKAGE     =           0.0000       SURFACE LEAKAGE     =           0.0000
    AWU WELLS            =           0.0000      AWU WELLS            =           0.0000

                TOTAL IN =   434916832.0000                  TOTAL IN =          13.5654

          OUT:                                     OUT:
          ----                                     ----
             STORAGE     =    57042716.0000               STORAGE     =           2.2813
       CONSTANT HEAD     =           0.0000         CONSTANT HEAD     =           0.0000
     HEAD DEP BOUNDS     =     7555908.5000       HEAD DEP BOUNDS     =           0.2861
      STREAM LEAKAGE     =   246905152.0000        STREAM LEAKAGE     =          10.8981
        UZF RECHARGE     =           0.0000          UZF RECHARGE     =           0.0000
               GW ET     =    53727212.0000                 GW ET     =       9.9533E-02
     SURFACE LEAKAGE     =           0.0000       SURFACE LEAKAGE     =           0.0000
    AWU WELLS            =    69679416.0000      AWU WELLS            =           0.0000

               TOTAL OUT =   434910400.0000                 TOTAL OUT =          13.5650

                IN - OUT =        6432.0000                  IN - OUT =       3.9005E-04

     PERCENT DISCREPANCY =           0.00         PERCENT DISCREPANCY =           0.00






         TIME SUMMARY AT END OF TIME STEP   30 IN STRESS PERIOD   11
                    SECONDS     MINUTES      HOURS       DAYS        YEARS
                    -----------------------------------------------------------
   TIME STEP LENGTH  87600.      1460.0      24.333      1.0139     2.77588E-03
 STRESS PERIOD TIME 2.62800E+06  43800.      730.00      30.417     8.32763E-02
         TOTAL TIME 2.63664E+07 4.39440E+05  7324.0      305.17     0.83550    
1
1
                            STRESS PERIOD NO.   12, LENGTH =   2628000.    
                            -----------------------------------------------

                              NUMBER OF TIME STEPS =    30

                               MULTIPLIER FOR DELT =     1.000

                            INITIAL TIME STEP SIZE =   87600.00    

 REUSING NON-PARAMETER GHB CELLS FROM LAST STRESS PERIOD

      2 GHB CELLS

 REUSING STREAM SEGMENT DATA FROM LAST STRESS PERIOD



            AREAL INFILTRATION RATE
 READING ON UNIT   19 WITH FORMAT: (10F4.0)            

            1           2           3           4           5           6           7           8           9          10
 ........................................................................................................................
   1    0.000       0.000       0.000       0.000       0.000       0.000       0.000       0.000       0.000       0.000    
   2    0.000       0.000       0.000       0.000       0.000       0.000       0.000       0.000       0.000       0.000    
   3    0.000       0.000       0.000       0.000       0.000       0.000       0.000       0.000       0.000       0.000    
   4    0.000       0.000       0.000       0.000       0.000       0.000       0.000       0.000       0.000       0.000    
   5    0.000       0.000       0.000       0.000       0.000       0.000       0.000       0.000       0.000       0.000    
   6    0.000       0.000       0.000       0.000       0.000       0.000       0.000       0.000       0.000       0.000    
   7    0.000       0.000       0.000       0.000       0.000       0.000       0.000       0.000       0.000       0.000    
   8    0.000       0.000       0.000       0.000       0.000       0.000       0.000       0.000       0.000       0.000    
   9    0.000       0.000       0.000       0.000       0.000       0.000       0.000       0.000       0.000       0.000    
  10    0.000       0.000       0.000       0.000       0.000       0.000       0.000       0.000       0.000       0.000    
  11    0.000       0.000       0.000       0.000       0.000       0.000       0.000       0.000       0.000       0.000    
  12    0.000       0.000       0.000       0.000       0.000       0.000       0.000       0.000       0.000       0.000    
  13    0.000       0.000       0.000       0.000       0.000       0.000       0.000       0.000       0.000       0.000    
  14    0.000       0.000       0.000       0.000       0.000       0.000       0.000       0.000       0.000       0.000    
  15    0.000       0.000       0.000       0.000       0.000       0.000       0.000       0.000       0.000       0.000    

                  ET RATE =  1.000000E-10

 USING ET EXTINCTION DEPTH FROM PREVIOUS STRESS PERIOD. CURRENT PERIOD IS:      12

 USING EXTINCTION WATER CONTENT FROM PREVIOUS STRESS PERIOD. CURRENT PERIOD IS:      12

 PROCESSING AWU STRESS PERIOD DATA

 READING AWU STRESS PERIOD DATA

 READING IRRIGATION WELL

 END PROCESSING AWU STRESS PERIOD DATA OPTIONS
 
 SOLVING FOR HEAD 
                                                   Max.-Head-Change                         Max.-Flux-Residual
  Residual-Control   Outer-Iter.   Inner-Iter.     Column Row Layer    Maximum-Head-Change  Column Row Layer    Maximum-Flux-Residual          L2-NORM 
          0                 1           2             4    7     1       0.6643792654E-02       4    7    1         0.3504274732E+00      0.8321594098E+00
          0                 2           2             4    7     1      -0.6583404325E-03       4    7    1        -0.3504281135E-01      0.8321548690E-01
          0                 3           1             4    7     1       0.5871248943E-04       4    7    1         0.3153852788E-02      0.7489226004E-02

    ------------------------------------------------
       NWT REQUIRED            3 OUTER ITERATIONS 
       AND A TOTAL OF          5 INNER ITERATIONS.
    ------------------------------------------------

 NO OUTPUT CONTROL FOR STRESS PERIOD   12   TIME STEP    1
 
 SOLVING FOR HEAD 
                                                   Max.-Head-Change                         Max.-Flux-Residual
  Residual-Control   Outer-Iter.   Inner-Iter.     Column Row Layer    Maximum-Head-Change  Column Row Layer    Maximum-Flux-Residual          L2-NORM 
          0                 1           2             4    7     1       0.6549651676E-02       4    7    1         0.3454633209E+00      0.8201830195E+00
          0                 2           2             4    7     1      -0.6490118947E-03       4    7    1        -0.3454639465E-01      0.8201804026E-01
          0                 3           1             4    7     1       0.5788054615E-04       4    7    1         0.3109175290E-02      0.7381609811E-02

    ------------------------------------------------
       NWT REQUIRED            3 OUTER ITERATIONS 
       AND A TOTAL OF          5 INNER ITERATIONS.
    ------------------------------------------------

 NO OUTPUT CONTROL FOR STRESS PERIOD   12   TIME STEP    2
 
 SOLVING FOR HEAD 
                                                   Max.-Head-Change                         Max.-Flux-Residual
  Residual-Control   Outer-Iter.   Inner-Iter.     Column Row Layer    Maximum-Head-Change  Column Row Layer    Maximum-Flux-Residual          L2-NORM 
          0                 1           2             4    7     1       0.6457021243E-02       4    7    1         0.3405784828E+00      0.8085504552E+00
          0                 2           2             4    7     1      -0.6398330383E-03       4    7    1        -0.3405790936E-01      0.8085487654E-01
          0                 3           1             4    7     1       0.5706195246E-04       4    7    1         0.3065211633E-02      0.7276912626E-02

    ------------------------------------------------
       NWT REQUIRED            3 OUTER ITERATIONS 
       AND A TOTAL OF          5 INNER ITERATIONS.
    ------------------------------------------------

 NO OUTPUT CONTROL FOR STRESS PERIOD   12   TIME STEP    3
 
 SOLVING FOR HEAD 
                                                   Max.-Head-Change                         Max.-Flux-Residual
  Residual-Control   Outer-Iter.   Inner-Iter.     Column Row Layer    Maximum-Head-Change  Column Row Layer    Maximum-Flux-Residual          L2-NORM 
          0                 1           2             4    7     1       0.6365632332E-02       4    7    1         0.3357572098E+00      0.7972611819E+00
          0                 2           2             4    7     1      -0.6307772063E-03       4    7    1        -0.3357578065E-01      0.7972597082E-01
          0                 3           1             4    7     1       0.5625433008E-04       4    7    1         0.3021820046E-02      0.7175318833E-02

    ------------------------------------------------
       NWT REQUIRED            3 OUTER ITERATIONS 
       AND A TOTAL OF          5 INNER ITERATIONS.
    ------------------------------------------------

 NO OUTPUT CONTROL FOR STRESS PERIOD   12   TIME STEP    4
 
 SOLVING FOR HEAD 
                                                   Max.-Head-Change                         Max.-Flux-Residual
  Residual-Control   Outer-Iter.   Inner-Iter.     Column Row Layer    Maximum-Head-Change  Column Row Layer    Maximum-Flux-Residual          L2-NORM 
          0                 1           2             4    7     1       0.6275756066E-02       4    7    1         0.3310151739E+00      0.7862800133E+00
          0                 2           2             4    7     1      -0.6218712635E-03       4    7    1        -0.3310157562E-01      0.7863954112E-01
          0                 3           1             4    7     1       0.5546007546E-04       4    7    1         0.2979141606E-02      0.7077518499E-02

    ------------------------------------------------
       NWT REQUIRED            3 OUTER ITERATIONS 
       AND A TOTAL OF          5 INNER ITERATIONS.
    ------------------------------------------------

 NO OUTPUT CONTROL FOR STRESS PERIOD   12   TIME STEP    5
 
 SOLVING FOR HEAD 
                                                   Max.-Head-Change                         Max.-Flux-Residual
  Residual-Control   Outer-Iter.   Inner-Iter.     Column Row Layer    Maximum-Head-Change  Column Row Layer    Maximum-Flux-Residual          L2-NORM 
          0                 1           2             4    7     1       0.6186836573E-02       4    7    1         0.3263219962E+00      0.7755804669E+00
          0                 2           2             4    7     1      -0.6130601287E-03       4    7    1        -0.3263225646E-01      0.7755781612E-01
          0                 3           1             4    7     1       0.5467427565E-04       4    7    1         0.2936902879E-02      0.6980148515E-02

    ------------------------------------------------
       NWT REQUIRED            3 OUTER ITERATIONS 
       AND A TOTAL OF          5 INNER ITERATIONS.
    ------------------------------------------------

 NO OUTPUT CONTROL FOR STRESS PERIOD   12   TIME STEP    6
 
 SOLVING FOR HEAD 
                                                   Max.-Head-Change                         Max.-Flux-Residual
  Residual-Control   Outer-Iter.   Inner-Iter.     Column Row Layer    Maximum-Head-Change  Column Row Layer    Maximum-Flux-Residual          L2-NORM 
          0                 1           2             4    7     1       0.6099428898E-02       4    7    1         0.3217080959E+00      0.7651353061E+00
          0                 2           2             4    7     1      -0.6043988014E-03       4    7    1        -0.3217086505E-01      0.7651326548E-01
          0                 3           1             4    7     1       0.5390183646E-04       4    7    1         0.2895377654E-02      0.6886160029E-02

    ------------------------------------------------
       NWT REQUIRED            3 OUTER ITERATIONS 
       AND A TOTAL OF          5 INNER ITERATIONS.
    ------------------------------------------------

 NO OUTPUT CONTROL FOR STRESS PERIOD   12   TIME STEP    7
 
 SOLVING FOR HEAD 
                                                   Max.-Head-Change                         Max.-Flux-Residual
  Residual-Control   Outer-Iter.   Inner-Iter.     Column Row Layer    Maximum-Head-Change  Column Row Layer    Maximum-Flux-Residual          L2-NORM 
          0                 1           2             4    7     1       0.6013515530E-02       4    7    1         0.3171726420E+00      0.7549477525E+00
          0                 2           2             4    7     1      -0.5958855470E-03       4    7    1        -0.3171731831E-01      0.7549453386E-01
          0                 3           1             4    7     1       0.5314260245E-04       4    7    1         0.2854558460E-02      0.6794507943E-02

    ------------------------------------------------
       NWT REQUIRED            3 OUTER ITERATIONS 
       AND A TOTAL OF          5 INNER ITERATIONS.
    ------------------------------------------------

 NO OUTPUT CONTROL FOR STRESS PERIOD   12   TIME STEP    8
 
 SOLVING FOR HEAD 
                                                   Max.-Head-Change                         Max.-Flux-Residual
  Residual-Control   Outer-Iter.   Inner-Iter.     Column Row Layer    Maximum-Head-Change  Column Row Layer    Maximum-Flux-Residual          L2-NORM 
          0                 1           2             4    7     1       0.5928819332E-02       4    7    1         0.3126999097E+00      0.7450402318E+00
          0                 2           2             4    7     1      -0.5874929031E-03       4    7    1        -0.3127004373E-01      0.7450369151E-01
          0                 3           1             4    7     1       0.5239412487E-04       4    7    1         0.2814303753E-02      0.6705282757E-02

    ------------------------------------------------
       NWT REQUIRED            3 OUTER ITERATIONS 
       AND A TOTAL OF          5 INNER ITERATIONS.
    ------------------------------------------------

 NO OUTPUT CONTROL FOR STRESS PERIOD   12   TIME STEP    9
 
 SOLVING FOR HEAD 
                                                   Max.-Head-Change                         Max.-Flux-Residual
  Residual-Control   Outer-Iter.   Inner-Iter.     Column Row Layer    Maximum-Head-Change  Column Row Layer    Maximum-Flux-Residual          L2-NORM 
          0                 1           2             4    7     1       0.5845331026E-02       4    7    1         0.3082903352E+00      0.7353681568E+00
          0                 2           2             4    7     1      -0.5792199514E-03       4    7    1        -0.3082908498E-01      0.7353645082E-01
          0                 3           1             4    7     1       0.5165632244E-04       4    7    1         0.2774617496E-02      0.6618240268E-02

    ------------------------------------------------
       NWT REQUIRED            3 OUTER ITERATIONS 
       AND A TOTAL OF          5 INNER ITERATIONS.
    ------------------------------------------------

 NO OUTPUT CONTROL FOR STRESS PERIOD   12   TIME STEP   10
 
 SOLVING FOR HEAD 
                                                   Max.-Head-Change                         Max.-Flux-Residual
  Residual-Control   Outer-Iter.   Inner-Iter.     Column Row Layer    Maximum-Head-Change  Column Row Layer    Maximum-Flux-Residual          L2-NORM 
          0                 1           2             4    7     1       0.5763036318E-02       4    7    1         0.3039434364E+00      0.7259181696E+00
          0                 2           2             4    7     1      -0.5710652740E-03       4    7    1        -0.3039439381E-01      0.7259141165E-01
          0                 3           1             4    7     1       0.5092906745E-04       4    7    1         0.2735495281E-02      0.6533189297E-02

    ------------------------------------------------
       NWT REQUIRED            3 OUTER ITERATIONS 
       AND A TOTAL OF          5 INNER ITERATIONS.
    ------------------------------------------------

 NO OUTPUT CONTROL FOR STRESS PERIOD   12   TIME STEP   11
 
 SOLVING FOR HEAD 
                                                   Max.-Head-Change                         Max.-Flux-Residual
  Residual-Control   Outer-Iter.   Inner-Iter.     Column Row Layer    Maximum-Head-Change  Column Row Layer    Maximum-Flux-Residual          L2-NORM 
          0                 1           2             4    7     1       0.5682207662E-02       4    7    1         0.2996732883E+00      0.7167048887E+00
          0                 2           2             4    7     1      -0.5630558698E-03       4    7    1        -0.2996737773E-01      0.7167001010E-01
          0                 3           1             4    7     1       0.5021476812E-04       4    7    1         0.2697063854E-02      0.6450225218E-02

    ------------------------------------------------
       NWT REQUIRED            3 OUTER ITERATIONS 
       AND A TOTAL OF          5 INNER ITERATIONS.
    ------------------------------------------------

 NO OUTPUT CONTROL FOR STRESS PERIOD   12   TIME STEP   12
 
 SOLVING FOR HEAD 
                                                   Max.-Head-Change                         Max.-Flux-Residual
  Residual-Control   Outer-Iter.   Inner-Iter.     Column Row Layer    Maximum-Head-Change  Column Row Layer    Maximum-Flux-Residual          L2-NORM 
          0                 1           2             4    7     1       0.5602823965E-02       4    7    1         0.2954792120E+00      0.7077013316E+00
          0                 2           2             4    7     1      -0.5551896480E-03       4    7    1        -0.2954796885E-01      0.7076962442E-01
          0                 3           1             4    7     1       0.4951323805E-04       4    7    1         0.2659317049E-02      0.6369201170E-02

    ------------------------------------------------
       NWT REQUIRED            3 OUTER ITERATIONS 
       AND A TOTAL OF          5 INNER ITERATIONS.
    ------------------------------------------------

 NO OUTPUT CONTROL FOR STRESS PERIOD   12   TIME STEP   13
 
 SOLVING FOR HEAD 
                                                   Max.-Head-Change                         Max.-Flux-Residual
  Residual-Control   Outer-Iter.   Inner-Iter.     Column Row Layer    Maximum-Head-Change  Column Row Layer    Maximum-Flux-Residual          L2-NORM 
          0                 1           2             4    7     1       0.5524318662E-02       4    7    1         0.2913304784E+00      0.6989058683E+00
          0                 2           2             4    7     1      -0.5474104683E-03       4    7    1        -0.2913309430E-01      0.6989006566E-01
          0                 3           1             4    7     1       0.4881947146E-04       4    7    1         0.2621978362E-02      0.6290071585E-02

    ------------------------------------------------
       NWT REQUIRED            3 OUTER ITERATIONS 
       AND A TOTAL OF          5 INNER ITERATIONS.
    ------------------------------------------------

 NO OUTPUT CONTROL FOR STRESS PERIOD   12   TIME STEP   14
 
 SOLVING FOR HEAD 
                                                   Max.-Head-Change                         Max.-Flux-Residual
  Residual-Control   Outer-Iter.   Inner-Iter.     Column Row Layer    Maximum-Head-Change  Column Row Layer    Maximum-Flux-Residual          L2-NORM 
          0                 1           2             4    7     1       0.5447514234E-02       4    7    1         0.2872717752E+00      0.6903114947E+00
          0                 2           2             4    7     1      -0.5397998292E-03       4    7    1        -0.2872722279E-01      0.6903059718E-01
          0                 3           1             4    7     1       0.4814073450E-04       4    7    1         0.2585449914E-02      0.6212709942E-02

    ------------------------------------------------
       NWT REQUIRED            3 OUTER ITERATIONS 
       AND A TOTAL OF          5 INNER ITERATIONS.
    ------------------------------------------------

 NO OUTPUT CONTROL FOR STRESS PERIOD   12   TIME STEP   15
 
 SOLVING FOR HEAD 
                                                   Max.-Head-Change                         Max.-Flux-Residual
  Residual-Control   Outer-Iter.   Inner-Iter.     Column Row Layer    Maximum-Head-Change  Column Row Layer    Maximum-Flux-Residual          L2-NORM 
          0                 1           2             4    7     1       0.5371553686E-02       4    7    1         0.2832568757E+00      0.6819044179E+00
          0                 2           2             4    7     1      -0.5322728121E-03       4    7    1        -0.2832573169E-01      0.6818991285E-01
          0                 3           1             4    7     1       0.4746945649E-04       4    7    1         0.2549315738E-02      0.6137052093E-02

    ------------------------------------------------
       NWT REQUIRED            3 OUTER ITERATIONS 
       AND A TOTAL OF          5 INNER ITERATIONS.
    ------------------------------------------------

 NO OUTPUT CONTROL FOR STRESS PERIOD   12   TIME STEP   16
 
 SOLVING FOR HEAD 
                                                   Max.-Head-Change                         Max.-Flux-Residual
  Residual-Control   Outer-Iter.   Inner-Iter.     Column Row Layer    Maximum-Head-Change  Column Row Layer    Maximum-Flux-Residual          L2-NORM 
          0                 1           2             4    7     1       0.5296985782E-02       4    7    1         0.2793153990E+00      0.6736760652E+00
          0                 2           2             4    7     1      -0.5248837935E-03       4    7    1        -0.2793158289E-01      0.6736700391E-01
          0                 3           1             4    7     1       0.4681048481E-04       4    7    1         0.2513842356E-02      0.6062980658E-02

    ------------------------------------------------
       NWT REQUIRED            3 OUTER ITERATIONS 
       AND A TOTAL OF          5 INNER ITERATIONS.
    ------------------------------------------------

 NO OUTPUT CONTROL FOR STRESS PERIOD   12   TIME STEP   17
 
 SOLVING FOR HEAD 
                                                   Max.-Head-Change                         Max.-Flux-Residual
  Residual-Control   Outer-Iter.   Inner-Iter.     Column Row Layer    Maximum-Head-Change  Column Row Layer    Maximum-Flux-Residual          L2-NORM 
          0                 1           2             4    7     1       0.5223783640E-02       4    7    1         0.2754461846E+00      0.6656269510E+00
          0                 2           2             4    7     1      -0.5176301098E-03       4    7    1        -0.2754466034E-01      0.6656226958E-01
          0                 3           1             4    7     1       0.4616358247E-04       4    7    1         0.2479019327E-02      0.5990856141E-02

    ------------------------------------------------
       NWT REQUIRED            3 OUTER ITERATIONS 
       AND A TOTAL OF          5 INNER ITERATIONS.
    ------------------------------------------------

 NO OUTPUT CONTROL FOR STRESS PERIOD   12   TIME STEP   18
 
 SOLVING FOR HEAD 
                                                   Max.-Head-Change                         Max.-Flux-Residual
  Residual-Control   Outer-Iter.   Inner-Iter.     Column Row Layer    Maximum-Head-Change  Column Row Layer    Maximum-Flux-Residual          L2-NORM 
          0                 1           2             4    7     1       0.5151658486E-02       4    7    1         0.2716330196E+00      0.6577524409E+00
          0                 2           2             4    7     1      -0.5104831460E-03       4    7    1        -0.2716334275E-01      0.6577465587E-01
          0                 3           1             4    7     1       0.4552619782E-04       4    7    1         0.2444700744E-02      0.5919678077E-02

    ------------------------------------------------
       NWT REQUIRED            3 OUTER ITERATIONS 
       AND A TOTAL OF          5 INNER ITERATIONS.
    ------------------------------------------------

 NO OUTPUT CONTROL FOR STRESS PERIOD   12   TIME STEP   19
 
 SOLVING FOR HEAD 
                                                   Max.-Head-Change                         Max.-Flux-Residual
  Residual-Control   Outer-Iter.   Inner-Iter.     Column Row Layer    Maximum-Head-Change  Column Row Layer    Maximum-Flux-Residual          L2-NORM 
          0                 1           2             4    7     1       0.5080593498E-02       4    7    1         0.2678757381E+00      0.6500377446E+00
          0                 2           2             4    7     1      -0.5034412355E-03       4    7    1        -0.2678761354E-01      0.6500316705E-01
          0                 3           1             4    7     1       0.4489818230E-04       4    7    1         0.2410885113E-02      0.5850210051E-02

    ------------------------------------------------
       NWT REQUIRED            3 OUTER ITERATIONS 
       AND A TOTAL OF          5 INNER ITERATIONS.
    ------------------------------------------------

 NO OUTPUT CONTROL FOR STRESS PERIOD   12   TIME STEP   20
 
 SOLVING FOR HEAD 
                                                   Max.-Head-Change                         Max.-Flux-Residual
  Residual-Control   Outer-Iter.   Inner-Iter.     Column Row Layer    Maximum-Head-Change  Column Row Layer    Maximum-Flux-Residual          L2-NORM 
          0                 1           2             4    7     1       0.5010851313E-02       4    7    1         0.2641882851E+00      0.6424851558E+00
          0                 2           2             4    7     1      -0.4965304037E-03       4    7    1        -0.2641886723E-01      0.6424791044E-01
          0                 3           1             4    7     1       0.4428185668E-04       4    7    1         0.2377697964E-02      0.5782248079E-02

    ------------------------------------------------
       NWT REQUIRED            3 OUTER ITERATIONS 
       AND A TOTAL OF          5 INNER ITERATIONS.
    ------------------------------------------------

 NO OUTPUT CONTROL FOR STRESS PERIOD   12   TIME STEP   21
 
 SOLVING FOR HEAD 
                                                   Max.-Head-Change                         Max.-Flux-Residual
  Residual-Control   Outer-Iter.   Inner-Iter.     Column Row Layer    Maximum-Head-Change  Column Row Layer    Maximum-Flux-Residual          L2-NORM 
          0                 1           2             4    7     1       0.4942139334E-02       4    7    1         0.2605546519E+00      0.6350852433E+00
          0                 2           2             4    7     1      -0.4897216558E-03       4    7    1        -0.2605550290E-01      0.6350793995E-01
          0                 3           1             4    7     1       0.4367463519E-04       4    7    1         0.2344995184E-02      0.5715635809E-02

    ------------------------------------------------
       NWT REQUIRED            3 OUTER ITERATIONS 
       AND A TOTAL OF          5 INNER ITERATIONS.
    ------------------------------------------------

 NO OUTPUT CONTROL FOR STRESS PERIOD   12   TIME STEP   22
 
 SOLVING FOR HEAD 
                                                   Max.-Head-Change                         Max.-Flux-Residual
  Residual-Control   Outer-Iter.   Inner-Iter.     Column Row Layer    Maximum-Head-Change  Column Row Layer    Maximum-Flux-Residual          L2-NORM 
          0                 1           2             4    7     1       0.4874707082E-02       4    7    1         0.2569892933E+00      0.6278340813E+00
          0                 2           2             4    7     1      -0.4830397178E-03       4    7    1        -0.2569896606E-01      0.6278276992E-01
          0                 3           1             4    7     1       0.4307872271E-04       4    7    1         0.2312906868E-02      0.5650400268E-02

    ------------------------------------------------
       NWT REQUIRED            3 OUTER ITERATIONS 
       AND A TOTAL OF          5 INNER ITERATIONS.
    ------------------------------------------------

 NO OUTPUT CONTROL FOR STRESS PERIOD   12   TIME STEP   23
 
 SOLVING FOR HEAD 
                                                   Max.-Head-Change                         Max.-Flux-Residual
  Residual-Control   Outer-Iter.   Inner-Iter.     Column Row Layer    Maximum-Head-Change  Column Row Layer    Maximum-Flux-Residual          L2-NORM 
          0                 1           2             4    7     1       0.4808261569E-02       4    7    1         0.2534755186E+00      0.6207238712E+00
          0                 2           2             4    7     1      -0.4764555571E-03       4    7    1        -0.2534758764E-01      0.6207178801E-01
          0                 3           1             4    7     1       0.4249153075E-04       4    7    1         0.2281282825E-02      0.5586386582E-02

    ------------------------------------------------
       NWT REQUIRED            3 OUTER ITERATIONS 
       AND A TOTAL OF          5 INNER ITERATIONS.
    ------------------------------------------------

 NO OUTPUT CONTROL FOR STRESS PERIOD   12   TIME STEP   24
 
 SOLVING FOR HEAD 
                                                   Max.-Head-Change                         Max.-Flux-Residual
  Residual-Control   Outer-Iter.   Inner-Iter.     Column Row Layer    Maximum-Head-Change  Column Row Layer    Maximum-Flux-Residual          L2-NORM 
          0                 1           2             4    7     1       0.4743065964E-02       4    7    1         0.2500277633E+00      0.6137662966E+00
          0                 2           2             4    7     1      -0.4699952507E-03       4    7    1        -0.2500281117E-01      0.6137604748E-01
          0                 3           1             4    7     1       0.4191538354E-04       4    7    1         0.2250252921E-02      0.5523813218E-02

    ------------------------------------------------
       NWT REQUIRED            3 OUTER ITERATIONS 
       AND A TOTAL OF          5 INNER ITERATIONS.
    ------------------------------------------------

 NO OUTPUT CONTROL FOR STRESS PERIOD   12   TIME STEP   25
 
 SOLVING FOR HEAD 
                                                   Max.-Head-Change                         Max.-Flux-Residual
  Residual-Control   Outer-Iter.   Inner-Iter.     Column Row Layer    Maximum-Head-Change  Column Row Layer    Maximum-Flux-Residual          L2-NORM 
          0                 1           2             4    7     1       0.4679089597E-02       4    7    1         0.2466448638E+00      0.6069284342E+00
          0                 2           2             4    7     1      -0.4636557609E-03       4    7    1        -0.2466452033E-01      0.6069220235E-01
          0                 3           1             4    7     1       0.4135001217E-04       4    7    1         0.2219806776E-02      0.5462234596E-02

    ------------------------------------------------
       NWT REQUIRED            3 OUTER ITERATIONS 
       AND A TOTAL OF          5 INNER ITERATIONS.
    ------------------------------------------------

 NO OUTPUT CONTROL FOR STRESS PERIOD   12   TIME STEP   26
 
 SOLVING FOR HEAD 
                                                   Max.-Head-Change                         Max.-Flux-Residual
  Residual-Control   Outer-Iter.   Inner-Iter.     Column Row Layer    Maximum-Head-Change  Column Row Layer    Maximum-Flux-Residual          L2-NORM 
          0                 1           2             4    7     1       0.4616037490E-02       4    7    1         0.2433104093E+00      0.6002320805E+00
          0                 2           2             4    7     1      -0.4574078564E-03       4    7    1        -0.2433107397E-01      0.6002265755E-01
          0                 3           1             4    7     1       0.4079280827E-04       4    7    1         0.2189796600E-02      0.5402000394E-02

    ------------------------------------------------
       NWT REQUIRED            3 OUTER ITERATIONS 
       AND A TOTAL OF          5 INNER ITERATIONS.
    ------------------------------------------------

 NO OUTPUT CONTROL FOR STRESS PERIOD   12   TIME STEP   27
 
 SOLVING FOR HEAD 
                                                   Max.-Head-Change                         Max.-Flux-Residual
  Residual-Control   Outer-Iter.   Inner-Iter.     Column Row Layer    Maximum-Head-Change  Column Row Layer    Maximum-Flux-Residual          L2-NORM 
          0                 1           2             4    7     1       0.4553896827E-02       4    7    1         0.2400239133E+00      0.5936540479E+00
          0                 2           2             4    7     1      -0.4512502689E-03       4    7    1        -0.2400242352E-01      0.5936486945E-01
          0                 3           1             4    7     1       0.4024365886E-04       4    7    1         0.2160218073E-02      0.5342790441E-02

    ------------------------------------------------
       NWT REQUIRED            3 OUTER ITERATIONS 
       AND A TOTAL OF          5 INNER ITERATIONS.
    ------------------------------------------------

 NO OUTPUT CONTROL FOR STRESS PERIOD   12   TIME STEP   28
 
 SOLVING FOR HEAD 
                                                   Max.-Head-Change                         Max.-Flux-Residual
  Residual-Control   Outer-Iter.   Inner-Iter.     Column Row Layer    Maximum-Head-Change  Column Row Layer    Maximum-Flux-Residual          L2-NORM 
          0                 1           2             4    7     1       0.4492928971E-02       4    7    1         0.2367995300E+00      0.5873656123E+00
          0                 2           2             4    7     1      -0.4452088957E-03       4    7    1        -0.2367998435E-01      0.5873612222E-01
          0                 3           1             4    7     1       0.3970487343E-04       4    7    1         0.2131198539E-02      0.5286227916E-02

    ------------------------------------------------
       NWT REQUIRED            3 OUTER ITERATIONS 
       AND A TOTAL OF          5 INNER ITERATIONS.
    ------------------------------------------------

 NO OUTPUT CONTROL FOR STRESS PERIOD   12   TIME STEP   29
 
 SOLVING FOR HEAD 
                                                   Max.-Head-Change                         Max.-Flux-Residual
  Residual-Control   Outer-Iter.   Inner-Iter.     Column Row Layer    Maximum-Head-Change  Column Row Layer    Maximum-Flux-Residual          L2-NORM 
          0                 1           2             4    7     1       0.4432816810E-02       4    7    1         0.2336211822E+00      0.5860025514E+00
          0                 2           2             4    7     1      -0.4392523148E-03       4    7    1        -0.2336214877E-01      0.5860002636E-01
          0                 3           1             4    7     1       0.3917365035E-04       4    7    1         0.2102593356E-02      0.5273964575E-02

    ------------------------------------------------
       NWT REQUIRED            3 OUTER ITERATIONS 
       AND A TOTAL OF          5 INNER ITERATIONS.
    ------------------------------------------------

 NO OUTPUT CONTROL FOR STRESS PERIOD   12   TIME STEP   30



 STREAM LISTING     PERIOD     12   STEP       30

 LAYER ROW COL. STREAM  RCH.  FLOW INTO     FLOW TO   FLOW OUT OF   OVRLND.     DIRECT     STREAM       STREAM     STREAM     STREAM   STREAMBED  STREAMBED
                SEG.NO.  NO.  STRM. RCH.    AQUIFER    STRM. RCH.    RUNOFF     PRECIP       ET          HEAD       DEPTH      WIDTH   CONDCTNC.   GRADIENT

   1    1    1     1     1    3.3000E+00  8.1313E-02   3.2187E+00  0.000E+00  0.000E+00  0.000E+00  1.09370E+03  6.519E-01  4.948E+00  2.227E-02  1.217E+00
   1    2    2     1     2    3.2187E+00  1.2488E-01   3.0938E+00  0.000E+00  0.000E+00  0.000E+00  1.08870E+03  6.446E-01  4.895E+00  3.426E-02  1.215E+00
   1    3    3     1     3    3.0938E+00  1.0547E-01   2.9883E+00  0.000E+00  0.000E+00  0.000E+00  1.08306E+03  6.363E-01  4.834E+00  2.901E-02  1.212E+00
   1    3    4     1     4    2.9883E+00  9.6268E-02   2.8921E+00  0.000E+00  0.000E+00  0.000E+00  1.07804E+03  6.289E-01  4.780E+00  2.653E-02  1.210E+00
   1    4    5     2     1    8.9207E-01  2.4566E-01   6.4640E-01  0.000E+00  0.000E+00  0.000E+00  1.07208E+03  1.495E-01  1.200E+01  7.800E-02  1.050E+00
   1    5    6     2     2    6.4640E-01  1.8736E-01   4.5904E-01  0.000E+00  0.000E+00  0.000E+00  1.06663E+03  1.226E-01  1.200E+01  6.000E-02  1.041E+00
   1    6    6     2     3    4.5904E-01  1.8575E-01   2.7329E-01  0.000E+00  0.000E+00  0.000E+00  1.06189E+03  9.580E-02  1.200E+01  6.000E-02  1.032E+00
   1    7    6     2     4    2.7329E-01  1.8377E-01   8.9523E-02  0.000E+00  0.000E+00  0.000E+00  1.05714E+03  6.285E-02  1.200E+01  6.000E-02  1.021E+00
   1    8    6     2     5    8.9523E-02  8.9523E-02   0.0000E+00  0.000E+00  0.000E+00  0.000E+00  1.05237E+03  9.257E-03  1.200E+01  6.000E-02  1.003E+00
   1    3    5     3     1    2.0000E+00  2.8252E-01   1.7175E+00  0.000E+00  0.000E+00  0.000E+00  1.07555E+03  1.909E+00  9.636E+00  7.227E-02  1.955E+00
   1    3    6     3     2    1.7175E+00  2.4905E-01   1.4684E+00  0.000E+00  0.000E+00  0.000E+00  1.07264E+03  1.727E+00  8.909E+00  6.682E-02  1.864E+00
   1    3    7     3     3    1.4684E+00  1.9718E-01   1.2712E+00  0.000E+00  0.000E+00  0.000E+00  1.06987E+03  1.555E+00  8.218E+00  5.547E-02  1.777E+00
   1    4    8     3     4    1.2712E+00  2.2567E-01   1.0456E+00  0.000E+00  0.000E+00  0.000E+00  1.06682E+03  1.364E+00  7.455E+00  6.709E-02  1.682E+00
   1    5    8     3     5    1.0456E+00  1.5790E-01   8.8768E-01  0.000E+00  0.000E+00  0.000E+00  1.06362E+03  1.164E+00  6.655E+00  4.991E-02  1.582E+00
   1    6    8     3     6    8.8768E-01  5.5980E-02   8.3170E-01  0.000E+00  0.000E+00  0.000E+00  1.06158E+03  1.036E+00  6.145E+00  1.844E-02  1.518E+00
   1    5   10     4     1    1.0000E+01  9.0919E-02   9.9091E+00  0.000E+00  0.000E+00  0.000E+00  1.07836E+03  6.368E-01  1.000E+01  2.500E-02  1.212E+00
   1    5    9     4     2    9.9091E+00  1.8158E-01   9.7275E+00  0.000E+00  0.000E+00  0.000E+00  1.07154E+03  6.315E-01  1.000E+01  5.000E-02  1.211E+00
   1    6    8     4     3    9.7275E+00  1.2689E-01   9.6006E+00  0.000E+00  0.000E+00  0.000E+00  1.06381E+03  6.256E-01  1.000E+01  3.500E-02  1.209E+00
   1    6    8     5     1    1.0432E+01  2.2686E-01   1.0205E+01  0.000E+00  0.000E+00  0.000E+00  1.05868E+03  6.790E-01  1.542E+01  6.166E-02  1.226E+00
   1    7    7     5     2    1.0205E+01  2.7894E-01   9.9265E+00  0.000E+00  0.000E+00  0.000E+00  1.05417E+03  6.732E-01  1.519E+01  7.594E-02  1.224E+00
   1    8    7     5     3    9.9265E+00  1.9221E-01   9.7343E+00  0.000E+00  0.000E+00  0.000E+00  1.04992E+03  6.676E-01  1.497E+01  5.241E-02  1.223E+00
   1    8    6     5     4    9.7343E+00  1.3577E-01   9.5985E+00  0.000E+00  0.000E+00  0.000E+00  1.04691E+03  6.637E-01  1.482E+01  3.706E-02  1.221E+00
   1    9    6     6     1    9.5985E+00  2.2097E-01   9.3776E+00  0.000E+00  0.000E+00  0.000E+00  1.04341E+03  6.828E-01  1.200E+01  6.000E-02  1.228E+00
   1   10    7     6     2    9.3776E+00  2.2039E-01   9.1572E+00  0.000E+00  0.000E+00  0.000E+00  1.03885E+03  6.732E-01  1.200E+01  6.000E-02  1.224E+00
   1   11    7     6     3    9.1572E+00  2.1981E-01   8.9374E+00  0.000E+00  0.000E+00  0.000E+00  1.03430E+03  6.636E-01  1.200E+01  6.000E-02  1.221E+00
   1   12    7     6     4    8.9374E+00  2.1923E-01   8.7181E+00  0.000E+00  0.000E+00  0.000E+00  1.02974E+03  6.539E-01  1.200E+01  6.000E-02  1.218E+00
   1   13    7     6     5    8.7181E+00 -1.1092E-01   8.8291E+00  0.000E+00  0.000E+00  0.000E+00  1.02656E+03  6.514E-01  1.200E+01  2.400E-01 -1.541E-01
   1   14    9     7     1    1.5000E+02  1.3388E+00   1.4866E+02  0.000E+00  0.000E+00  0.000E+00  1.03987E+03  2.288E+00  5.529E+01  5.593E-01  7.979E-01
   1   13    8     7     2    1.4866E+02  1.8420E+00   1.4682E+02  0.000E+00  0.000E+00  0.000E+00  1.03478E+03  2.279E+00  5.526E+01  6.148E-01  9.987E-01
   1   13    7     7     3    1.4682E+02  1.4894E+00   1.4533E+02  0.000E+00  0.000E+00  0.000E+00  1.02969E+03  2.270E+00  5.522E+01  5.584E-01  8.890E-01
   1   13    6     8     1    1.5416E+02  8.5603E-01   1.5330E+02  0.000E+00  0.000E+00  0.000E+00  1.02472E+03  2.843E+00  4.122E+01  4.201E-01  6.793E-01
   1   13    5     8     2    1.5330E+02  1.3244E-01   1.5317E+02  0.000E+00  0.000E+00  0.000E+00  1.01846E+03  2.839E+00  4.117E+01  4.196E-01  1.052E-01
   1   13    4     8     3    1.5317E+02 -2.5880E+00   1.5576E+02  0.000E+00  0.000E+00  0.000E+00  1.01222E+03  2.848E+00  4.130E+01  4.208E+00 -2.050E-01
   1   13    3     8     4    1.5576E+02 -3.7162E+00   1.5947E+02  0.000E+00  0.000E+00  0.000E+00  1.00599E+03  2.870E+00  4.161E+01  4.240E+00 -2.921E-01
   1   13    2     8     5    1.5947E+02 -2.5958E+00   1.6207E+02  0.000E+00  0.000E+00  0.000E+00  9.99766E+02  2.891E+00  4.192E+01  4.272E+00 -2.026E-01
   1   13    1     8     6    1.6207E+02 -1.9682E+00   1.6404E+02  0.000E+00  0.000E+00  0.000E+00  9.94781E+02  2.906E+00  4.214E+01  2.577E+00 -2.546E-01
   1    6    8     9     1    0.0000E+00  0.0000E+00   0.0000E+00  0.000E+00  0.000E+00  0.000E+00  1.07850E+03  0.000E+00  4.000E+00  0.000E+00  1.000E+00





UNSATURATED ZONE PACKAGE VOLUMETRIC BUDGET FOR  TIME STEP    30 STRESS PERIOD   12
  ------------------------------------------------------------------------------



     CUMULATIVE VOLUMES      L**3       RATES FOR THIS TIME STEP      L**3/T
     ------------------                 ------------------------

           IN:                                      IN:
           ---                                      ---
        INFILTRATION =    69752645.8242          INFILTRATION =       0.0000E+00

          OUT:                                     OUT:
          ----                                     ----
              UZF ET =    47479524.3497                UZF ET =           0.0119
        UZF RECHARGE =       73224.0000          UZF RECHARGE =       0.0000E+00

            IN - OUT =    22199897.4745              IN - OUT =          -0.0119

          STORAGE:                                 STORAGE:
          --------                                 --------
      STORAGE CHANGE =    22199556.5219        STORAGE CHANGE =          -0.0119

 PERCENT DISCREPANCY IS DIFFERENCE BETWEEN IN-OUT MINUS CHANGE IN STORAGE
 DIVIDED BY THE AVERAGE OF IN AND OUT TIMES 100

 PERCENT DISCREPANCY =           0.00     PERCENT DISCREPANCY =           0.00






1
  VOLUMETRIC BUDGET FOR ENTIRE MODEL AT END OF TIME STEP   30, STRESS PERIOD  12
  ------------------------------------------------------------------------------

     CUMULATIVE VOLUMES      L**3       RATES FOR THIS TIME STEP      L**3/T
     ------------------                 ------------------------

           IN:                                      IN:
           ---                                      ---
    AWU WELLS            =    69679416.0000      AWU WELLS            =           0.0000
    DIVERSION SEGMENTS   =           0.0000      DIVERSION SEGMENTS   =           0.0000
    GW IRRIGATION        =           0.0000      GW IRRIGATION        =           0.0000
    SW IRRIGATION        =           0.0000      SW IRRIGATION        =           0.0000
    EFFICIENCY FACTOR GW =           0.0000      EFFICIENCY FACTOR GW =           0.0000
    EFFICIENCY FACTOR SW =           0.0000      EFFICIENCY FACTOR SW =           0.0000

                TOTAL IN =    69679416.0000                  TOTAL IN =           0.0000

          OUT:                                     OUT:
          ----                                     ----
    AWU WELLS            =           0.0000      AWU WELLS            =           0.0000
    DIVERSION SEGMENTS   =           0.0000      DIVERSION SEGMENTS   =           0.0000
    GW IRRIGATION        =    69679416.0000      GW IRRIGATION        =           0.0000
    SW IRRIGATION        =           0.0000      SW IRRIGATION        =           0.0000
    EFFICIENCY FACTOR GW =           0.0000      EFFICIENCY FACTOR GW =           0.0000
    EFFICIENCY FACTOR SW =           0.0000      EFFICIENCY FACTOR SW =           0.0000

               TOTAL OUT =    69679416.0000                 TOTAL OUT =           0.0000

                IN - OUT =           0.0000                  IN - OUT =           0.0000

     PERCENT DISCREPANCY =           0.00         PERCENT DISCREPANCY =           0.00



1
  VOLUMETRIC BUDGET FOR ENTIRE MODEL AT END OF TIME STEP   30, STRESS PERIOD  12
  ------------------------------------------------------------------------------

     CUMULATIVE VOLUMES      L**3       RATES FOR THIS TIME STEP      L**3/T
     ------------------                 ------------------------

           IN:                                      IN:
           ---                                      ---
             STORAGE     =   113209512.0000               STORAGE     =           2.3136
       CONSTANT HEAD     =           0.0000         CONSTANT HEAD     =           0.0000
     HEAD DEP BOUNDS     =     8288855.5000       HEAD DEP BOUNDS     =           0.2860
      STREAM LEAKAGE     =   347917056.0000        STREAM LEAKAGE     =          10.2404
        UZF RECHARGE     =       73223.9531          UZF RECHARGE     =           0.0000
               GW ET     =           0.0000                 GW ET     =           0.0000
     SURFACE LEAKAGE     =           0.0000       SURFACE LEAKAGE     =           0.0000
    AWU WELLS            =           0.0000      AWU WELLS            =           0.0000

                TOTAL IN =   469488640.0000                  TOTAL IN =          12.8400

          OUT:                                     OUT:
          ----                                     ----
             STORAGE     =    62024820.0000               STORAGE     =           1.5637
       CONSTANT HEAD     =           0.0000         CONSTANT HEAD     =           0.0000
     HEAD DEP BOUNDS     =     8308858.0000       HEAD DEP BOUNDS     =           0.2867
      STREAM LEAKAGE     =   275714560.0000        STREAM LEAKAGE     =          10.9791
        UZF RECHARGE     =           0.0000          UZF RECHARGE     =           0.0000
               GW ET     =    53753428.0000                 GW ET     =       9.9898E-03
     SURFACE LEAKAGE     =           0.0000       SURFACE LEAKAGE     =           0.0000
    AWU WELLS            =    69679416.0000      AWU WELLS            =           0.0000

               TOTAL OUT =   469481120.0000                 TOTAL OUT =          12.8395

                IN - OUT =        7520.0000                  IN - OUT =       5.4550E-04

     PERCENT DISCREPANCY =           0.00         PERCENT DISCREPANCY =           0.00






         TIME SUMMARY AT END OF TIME STEP   30 IN STRESS PERIOD   12
                    SECONDS     MINUTES      HOURS       DAYS        YEARS
                    -----------------------------------------------------------
   TIME STEP LENGTH  87600.      1460.0      24.333      1.0139     2.77588E-03
 STRESS PERIOD TIME 2.62800E+06  43800.      730.00      30.417     8.32763E-02
         TOTAL TIME 2.89944E+07 4.83240E+05  8054.0      335.58     0.91878    
1
1
                            STRESS PERIOD NO.   13, LENGTH =   2628000.    
                            -----------------------------------------------

                              NUMBER OF TIME STEPS =    30

                               MULTIPLIER FOR DELT =     1.000

                            INITIAL TIME STEP SIZE =   87600.00    

 REUSING NON-PARAMETER GHB CELLS FROM LAST STRESS PERIOD

      2 GHB CELLS

 REUSING STREAM SEGMENT DATA FROM LAST STRESS PERIOD



            AREAL INFILTRATION RATE
 READING ON UNIT   19 WITH FORMAT: (10F4.0)            

            1           2           3           4           5           6           7           8           9          10
 ........................................................................................................................
   1    0.000       0.000       0.000       0.000       0.000       0.000       0.000       0.000       0.000       0.000    
   2    0.000       0.000       0.000       0.000       0.000       0.000       0.000       0.000       0.000       0.000    
   3    0.000       0.000       0.000       0.000       0.000       0.000       0.000       0.000       0.000       0.000    
   4    0.000       0.000       0.000       0.000       0.000       0.000       0.000       0.000       0.000       0.000    
   5    0.000       0.000       0.000       0.000       0.000       0.000       0.000       0.000       0.000       0.000    
   6    0.000       0.000       0.000       0.000       0.000       0.000       0.000       0.000       0.000       0.000    
   7    0.000       0.000       0.000       0.000       0.000       0.000       0.000       0.000       0.000       0.000    
   8    0.000       0.000       0.000       0.000       0.000       0.000       0.000       0.000       0.000       0.000    
   9    0.000       0.000       0.000       0.000       0.000       0.000       0.000       0.000       0.000       0.000    
  10    0.000       0.000       0.000       0.000       0.000       0.000       0.000       0.000       0.000       0.000    
  11    0.000       0.000       0.000       0.000       0.000       0.000       0.000       0.000       0.000       0.000    
  12    0.000       0.000       0.000       0.000       0.000       0.000       0.000       0.000       0.000       0.000    
  13    0.000       0.000       0.000       0.000       0.000       0.000       0.000       0.000       0.000       0.000    
  14    0.000       0.000       0.000       0.000       0.000       0.000       0.000       0.000       0.000       0.000    
  15    0.000       0.000       0.000       0.000       0.000       0.000       0.000       0.000       0.000       0.000    

                  ET RATE =  1.000000E-10

 USING ET EXTINCTION DEPTH FROM PREVIOUS STRESS PERIOD. CURRENT PERIOD IS:      13

 USING EXTINCTION WATER CONTENT FROM PREVIOUS STRESS PERIOD. CURRENT PERIOD IS:      13

 PROCESSING AWU STRESS PERIOD DATA

 READING AWU STRESS PERIOD DATA

 READING IRRIGATION WELL

 END PROCESSING AWU STRESS PERIOD DATA OPTIONS
 
 SOLVING FOR HEAD 
                                                   Max.-Head-Change                         Max.-Flux-Residual
  Residual-Control   Outer-Iter.   Inner-Iter.     Column Row Layer    Maximum-Head-Change  Column Row Layer    Maximum-Flux-Residual          L2-NORM 
          0                 1           2             4    7     1       0.4373803506E-02       4    7    1         0.2305020541E+00      0.5789159913E+00
          0                 2           2             4    7     1      -0.4334046208E-03       4    7    1        -0.2305023517E-01      0.5789138298E-01
          0                 3           1             4    7     1       0.3865213799E-04       4    7    1         0.2074521123E-02      0.5210245583E-02

    ------------------------------------------------
       NWT REQUIRED            3 OUTER ITERATIONS 
       AND A TOTAL OF          5 INNER ITERATIONS.
    ------------------------------------------------

 NO OUTPUT CONTROL FOR STRESS PERIOD   13   TIME STEP    1
 
 SOLVING FOR HEAD 
                                                   Max.-Head-Change                         Max.-Flux-Residual
  Residual-Control   Outer-Iter.   Inner-Iter.     Column Row Layer    Maximum-Head-Change  Column Row Layer    Maximum-Flux-Residual          L2-NORM 
          0                 1           2             4    7     1       0.4315854779E-02       4    7    1         0.2274399431E+00      0.5720441796E+00
          0                 2           2             4    7     1      -0.4276624172E-03       4    7    1        -0.2274402331E-01      0.5720417964E-01
          0                 3           1             4    7     1       0.3814003331E-04       4    7    1         0.2046962067E-02      0.5148345410E-02

    ------------------------------------------------
       NWT REQUIRED            3 OUTER ITERATIONS 
       AND A TOTAL OF          5 INNER ITERATIONS.
    ------------------------------------------------

 NO OUTPUT CONTROL FOR STRESS PERIOD   13   TIME STEP    2
 
 SOLVING FOR HEAD 
                                                   Max.-Head-Change                         Max.-Flux-Residual
  Residual-Control   Outer-Iter.   Inner-Iter.     Column Row Layer    Maximum-Head-Change  Column Row Layer    Maximum-Flux-Residual          L2-NORM 
          0                 1           2             4    7     1       0.4258667043E-02       4    7    1         0.2244182509E+00      0.5653607183E+00
          0                 2           2             4    7     1      -0.4227321210E-03       4    7    1        -0.2249196838E-01      0.5655291366E-01
          0                 3           1             4    7     1       0.3770033607E-04       4    7    1         0.2024277065E-02      0.5089726052E-02

    ------------------------------------------------
       NWT REQUIRED            3 OUTER ITERATIONS 
       AND A TOTAL OF          5 INNER ITERATIONS.
    ------------------------------------------------

 NO OUTPUT CONTROL FOR STRESS PERIOD   13   TIME STEP    3
 
 SOLVING FOR HEAD 
                                                   Max.-Head-Change                         Max.-Flux-Residual
  Residual-Control   Outer-Iter.   Inner-Iter.     Column Row Layer    Maximum-Head-Change  Column Row Layer    Maximum-Flux-Residual          L2-NORM 
          0                 1           2             4    7     1       0.4200189592E-02       4    7    1         0.2214122147E+00      0.5588498620E+00
          0                 2           2             4    7     1      -0.4162011095E-03       4    7    1        -0.2214125468E-01      0.5588477715E-01
          0                 3           1             4    7     1       0.3711788393E-04       4    7    1         0.1992712829E-02      0.5029638957E-02

    ------------------------------------------------
       NWT REQUIRED            3 OUTER ITERATIONS 
       AND A TOTAL OF          5 INNER ITERATIONS.
    ------------------------------------------------

 NO OUTPUT CONTROL FOR STRESS PERIOD   13   TIME STEP    4
 
 SOLVING FOR HEAD 
                                                   Max.-Head-Change                         Max.-Flux-Residual
  Residual-Control   Outer-Iter.   Inner-Iter.     Column Row Layer    Maximum-Head-Change  Column Row Layer    Maximum-Flux-Residual          L2-NORM 
          0                 1           2             4    7     1       0.4143303631E-02       4    7    1         0.2184016726E+00      0.5524813883E+00
          0                 2           2             4    7     1      -0.4105642130E-03       4    7    1        -0.2184019948E-01      0.5524792850E-01
          0                 3           1             4    7     1       0.3661517071E-04       4    7    1         0.1965617869E-02      0.4972293095E-02

    ------------------------------------------------
       NWT REQUIRED            3 OUTER ITERATIONS 
       AND A TOTAL OF          5 INNER ITERATIONS.
    ------------------------------------------------

 NO OUTPUT CONTROL FOR STRESS PERIOD   13   TIME STEP    5
 
 SOLVING FOR HEAD 
                                                   Max.-Head-Change                         Max.-Flux-Residual
  Residual-Control   Outer-Iter.   Inner-Iter.     Column Row Layer    Maximum-Head-Change  Column Row Layer    Maximum-Flux-Residual          L2-NORM 
          0                 1           2             4    7     1       0.4087517562E-02       4    7    1         0.2154499488E+00      0.5462805544E+00
          0                 2           2             4    7     1      -0.4050363056E-03       4    7    1        -0.2154502611E-01      0.5462785148E-01
          0                 3           1             4    7     1       0.3612217805E-04       4    7    1         0.1939052270E-02      0.4916491343E-02

    ------------------------------------------------
       NWT REQUIRED            3 OUTER ITERATIONS 
       AND A TOTAL OF          5 INNER ITERATIONS.
    ------------------------------------------------

 NO OUTPUT CONTROL FOR STRESS PERIOD   13   TIME STEP    6
 
 SOLVING FOR HEAD 
                                                   Max.-Head-Change                         Max.-Flux-Residual
  Residual-Control   Outer-Iter.   Inner-Iter.     Column Row Layer    Maximum-Head-Change  Column Row Layer    Maximum-Flux-Residual          L2-NORM 
          0                 1           2             4    7     1       0.4032795325E-02       4    7    1         0.2125552964E+00      0.5402212292E+00
          0                 2           2             4    7     1      -0.3996138154E-03       4    7    1        -0.2125555993E-01      0.5402192287E-01
          0                 3           1             4    7     1       0.3563858692E-04       4    7    1         0.1913000328E-02      0.4861944662E-02

    ------------------------------------------------
       NWT REQUIRED            3 OUTER ITERATIONS 
       AND A TOTAL OF          5 INNER ITERATIONS.
    ------------------------------------------------

 NO OUTPUT CONTROL FOR STRESS PERIOD   13   TIME STEP    7
 
 SOLVING FOR HEAD 
                                                   Max.-Head-Change                         Max.-Flux-Residual
  Residual-Control   Outer-Iter.   Inner-Iter.     Column Row Layer    Maximum-Head-Change  Column Row Layer    Maximum-Flux-Residual          L2-NORM 
          0                 1           2             4    7     1       0.3978840909E-02       4    7    1         0.2097010233E+00      0.5343151939E+00
          0                 2           2             4    7     1      -0.3942674098E-03       4    7    1        -0.2097013171E-01      0.5343132891E-01
          0                 3           1             4    7     1       0.3516178061E-04       4    7    1         0.1887311801E-02      0.4808810898E-02

    ------------------------------------------------
       NWT REQUIRED            3 OUTER ITERATIONS 
       AND A TOTAL OF          5 INNER ITERATIONS.
    ------------------------------------------------

 NO OUTPUT CONTROL FOR STRESS PERIOD   13   TIME STEP    8
 
 SOLVING FOR HEAD 
                                                   Max.-Head-Change                         Max.-Flux-Residual
  Residual-Control   Outer-Iter.   Inner-Iter.     Column Row Layer    Maximum-Head-Change  Column Row Layer    Maximum-Flux-Residual          L2-NORM 
          0                 1           2             4    7     1       0.3925641190E-02       4    7    1         0.2068865911E+00      0.5285459448E+00
          0                 2           2             4    7     1      -0.3889957880E-03       4    7    1        -0.2068868762E-01      0.5285440337E-01
          0                 3           1             4    7     1       0.3469164368E-04       4    7    1         0.1861981825E-02      0.4756869219E-02

    ------------------------------------------------
       NWT REQUIRED            3 OUTER ITERATIONS 
       AND A TOTAL OF          5 INNER ITERATIONS.
    ------------------------------------------------

 NO OUTPUT CONTROL FOR STRESS PERIOD   13   TIME STEP    9
 
 SOLVING FOR HEAD 
                                                   Max.-Head-Change                         Max.-Flux-Residual
  Residual-Control   Outer-Iter.   Inner-Iter.     Column Row Layer    Maximum-Head-Change  Column Row Layer    Maximum-Flux-Residual          L2-NORM 
          0                 1           2             4    7     1       0.3873448424E-02       4    7    1         0.2041261398E+00      0.5229033008E+00
          0                 2           2             4    7     1      -0.3838239466E-03       4    7    1        -0.2041264164E-01      0.5229011485E-01
          0                 3           1             4    7     1       0.3423040557E-04       4    7    1         0.1837137694E-02      0.4706083544E-02

    ------------------------------------------------
       NWT REQUIRED            3 OUTER ITERATIONS 
       AND A TOTAL OF          5 INNER ITERATIONS.
    ------------------------------------------------

 NO OUTPUT CONTROL FOR STRESS PERIOD   13   TIME STEP   10
 
 SOLVING FOR HEAD 
                                                   Max.-Head-Change                         Max.-Flux-Residual
  Residual-Control   Outer-Iter.   Inner-Iter.     Column Row Layer    Maximum-Head-Change  Column Row Layer    Maximum-Flux-Residual          L2-NORM 
          0                 1           2             4    7     1       0.3822238993E-02       4    7    1         0.2014179371E+00      0.5173822789E+00
          0                 2           2             4    7     1      -0.3787495453E-03       4    7    1        -0.2014182057E-01      0.5173808354E-01
          0                 3           1             4    7     1       0.3377785778E-04       4    7    1         0.1812763807E-02      0.4656440306E-02

    ------------------------------------------------
       NWT REQUIRED            3 OUTER ITERATIONS 
       AND A TOTAL OF          5 INNER ITERATIONS.
    ------------------------------------------------

 NO OUTPUT CONTROL FOR STRESS PERIOD   13   TIME STEP   11
 
 SOLVING FOR HEAD 
                                                   Max.-Head-Change                         Max.-Flux-Residual
  Residual-Control   Outer-Iter.   Inner-Iter.     Column Row Layer    Maximum-Head-Change  Column Row Layer    Maximum-Flux-Residual          L2-NORM 
          0                 1           2             4    7     1       0.3771984175E-02       4    7    1         0.1987607580E+00      0.5119873195E+00
          0                 2           2             4    7     1      -0.3737697379E-03       4    7    1        -0.1987610188E-01      0.5119856101E-01
          0                 3           1             4    7     1       0.3333374588E-04       4    7    1         0.1788849135E-02      0.4607847111E-02

    ------------------------------------------------
       NWT REQUIRED            3 OUTER ITERATIONS 
       AND A TOTAL OF          5 INNER ITERATIONS.
    ------------------------------------------------

 NO OUTPUT CONTROL FOR STRESS PERIOD   13   TIME STEP   12
 
 SOLVING FOR HEAD 
                                                   Max.-Head-Change                         Max.-Flux-Residual
  Residual-Control   Outer-Iter.   Inner-Iter.     Column Row Layer    Maximum-Head-Change  Column Row Layer    Maximum-Flux-Residual          L2-NORM 
          0                 1           2             4    7     1       0.3722393029E-02       4    7    1         0.1961382907E+00      0.5066922244E+00
          0                 2           2             4    7     1      -0.3688556946E-03       4    7    1        -0.1961385438E-01      0.5066907877E-01
          0                 3           1             4    7     1       0.3289549883E-04       4    7    1         0.1765246863E-02      0.4560211565E-02

    ------------------------------------------------
       NWT REQUIRED            3 OUTER ITERATIONS 
       AND A TOTAL OF          5 INNER ITERATIONS.
    ------------------------------------------------

 NO OUTPUT CONTROL FOR STRESS PERIOD   13   TIME STEP   13
 
 SOLVING FOR HEAD 
                                                   Max.-Head-Change                         Max.-Flux-Residual
  Residual-Control   Outer-Iter.   Inner-Iter.     Column Row Layer    Maximum-Head-Change  Column Row Layer    Maximum-Flux-Residual          L2-NORM 
          0                 1           2             4    7     1       0.3673725163E-02       4    7    1         0.1935650818E+00      0.5015231327E+00
          0                 2           2             4    7     1      -0.3640331404E-03       4    7    1        -0.1935653275E-01      0.5015216945E-01
          0                 3           1             4    7     1       0.3246541113E-04       4    7    1         0.1742087913E-02      0.4513680245E-02

    ------------------------------------------------
       NWT REQUIRED            3 OUTER ITERATIONS 
       AND A TOTAL OF          5 INNER ITERATIONS.
    ------------------------------------------------

 NO OUTPUT CONTROL FOR STRESS PERIOD   13   TIME STEP   14
 
 SOLVING FOR HEAD 
                                                   Max.-Head-Change                         Max.-Flux-Residual
  Residual-Control   Outer-Iter.   Inner-Iter.     Column Row Layer    Maximum-Head-Change  Column Row Layer    Maximum-Flux-Residual          L2-NORM 
          0                 1           2             4    7     1       0.3625685949E-02       4    7    1         0.1910249586E+00      0.4964429817E+00
          0                 2           2             4    7     1      -0.3592728802E-03       4    7    1        -0.1910251972E-01      0.4964412930E-01
          0                 3           1             4    7     1       0.3204087885E-04       4    7    1         0.1719226746E-02      0.4467970533E-02

    ------------------------------------------------
       NWT REQUIRED            3 OUTER ITERATIONS 
       AND A TOTAL OF          5 INNER ITERATIONS.
    ------------------------------------------------

 NO OUTPUT CONTROL FOR STRESS PERIOD   13   TIME STEP   15
 
 SOLVING FOR HEAD 
                                                   Max.-Head-Change                         Max.-Flux-Residual
  Residual-Control   Outer-Iter.   Inner-Iter.     Column Row Layer    Maximum-Head-Change  Column Row Layer    Maximum-Flux-Residual          L2-NORM 
          0                 1           2             4    7     1       0.3578543292E-02       4    7    1         0.1885322767E+00      0.4914687225E+00
          0                 2           2             4    7     1      -0.3546014611E-03       4    7    1        -0.1885325083E-01      0.4914674305E-01
          0                 3           1             4    7     1       0.3162427016E-04       4    7    1         0.1696792560E-02      0.4423198138E-02

    ------------------------------------------------
       NWT REQUIRED            3 OUTER ITERATIONS 
       AND A TOTAL OF          5 INNER ITERATIONS.
    ------------------------------------------------

 NO OUTPUT CONTROL FOR STRESS PERIOD   13   TIME STEP   16
 
 SOLVING FOR HEAD 
                                                   Max.-Head-Change                         Max.-Flux-Residual
  Residual-Control   Outer-Iter.   Inner-Iter.     Column Row Layer    Maximum-Head-Change  Column Row Layer    Maximum-Flux-Residual          L2-NORM 
          0                 1           2             4    7     1       0.3532269936E-02       4    7    1         0.1860861158E+00      0.4865935530E+00
          0                 2           2             4    7     1      -0.3500161825E-03       4    7    1        -0.1860863408E-01      0.4865923355E-01
          0                 3           1             4    7     1       0.3121534316E-04       4    7    1         0.1674777071E-02      0.4379321655E-02

    ------------------------------------------------
       NWT REQUIRED            3 OUTER ITERATIONS 
       AND A TOTAL OF          5 INNER ITERATIONS.
    ------------------------------------------------

 NO OUTPUT CONTROL FOR STRESS PERIOD   13   TIME STEP   17
 
 SOLVING FOR HEAD 
                                                   Max.-Head-Change                         Max.-Flux-Residual
  Residual-Control   Outer-Iter.   Inner-Iter.     Column Row Layer    Maximum-Head-Change  Column Row Layer    Maximum-Flux-Residual          L2-NORM 
          0                 1           2             4    7     1       0.3486582034E-02       4    7    1         0.1836702394E+00      0.4818123623E+00
          0                 2           2             4    7     1      -0.3454889163E-03       4    7    1        -0.1836704578E-01      0.4818109512E-01
          0                 3           1             4    7     1       0.3081158969E-04       4    7    1         0.1653034098E-02      0.4336274737E-02

    ------------------------------------------------
       NWT REQUIRED            3 OUTER ITERATIONS 
       AND A TOTAL OF          5 INNER ITERATIONS.
    ------------------------------------------------

 NO OUTPUT CONTROL FOR STRESS PERIOD   13   TIME STEP   18
 
 SOLVING FOR HEAD 
                                                   Max.-Head-Change                         Max.-Flux-Residual
  Residual-Control   Outer-Iter.   Inner-Iter.     Column Row Layer    Maximum-Head-Change  Column Row Layer    Maximum-Flux-Residual          L2-NORM 
          0                 1           2             4    7     1       0.3441734917E-02       4    7    1         0.1812995634E+00      0.4771156069E+00
          0                 2           2             4    7     1      -0.3410449651E-03       4    7    1        -0.1812997754E-01      0.4771145678E-01
          0                 3           1             4    7     1       0.3041526667E-04       4    7    1         0.1631697970E-02      0.4294021439E-02

    ------------------------------------------------
       NWT REQUIRED            3 OUTER ITERATIONS 
       AND A TOTAL OF          5 INNER ITERATIONS.
    ------------------------------------------------

 NO OUTPUT CONTROL FOR STRESS PERIOD   13   TIME STEP   19
 
 SOLVING FOR HEAD 
                                                   Max.-Head-Change                         Max.-Flux-Residual
  Residual-Control   Outer-Iter.   Inner-Iter.     Column Row Layer    Maximum-Head-Change  Column Row Layer    Maximum-Flux-Residual          L2-NORM 
          0                 1           2             4    7     1       0.3397715313E-02       4    7    1         0.1789725141E+00      0.4725209942E+00
          0                 2           2             4    7     1      -0.3366830138E-03       4    7    1        -0.1789727204E-01      0.4725200182E-01
          0                 3           1             4    7     1       0.3002625697E-04       4    7    1         0.1610754472E-02      0.4252666495E-02

    ------------------------------------------------
       NWT REQUIRED            3 OUTER ITERATIONS 
       AND A TOTAL OF          5 INNER ITERATIONS.
    ------------------------------------------------

 NO OUTPUT CONTROL FOR STRESS PERIOD   13   TIME STEP   20
 
 SOLVING FOR HEAD 
                                                   Max.-Head-Change                         Max.-Flux-Residual
  Residual-Control   Outer-Iter.   Inner-Iter.     Column Row Layer    Maximum-Head-Change  Column Row Layer    Maximum-Flux-Residual          L2-NORM 
          0                 1           2             4    7     1       0.3354228504E-02       4    7    1         0.1766735810E+00      0.4679903620E+00
          0                 2           2             4    7     1      -0.3323738571E-03       4    7    1        -0.1766737811E-01      0.4679894253E-01
          0                 3           1             4    7     1       0.2964195566E-04       4    7    1         0.1590064035E-02      0.4211895655E-02

    ------------------------------------------------
       NWT REQUIRED            3 OUTER ITERATIONS 
       AND A TOTAL OF          5 INNER ITERATIONS.
    ------------------------------------------------

 NO OUTPUT CONTROL FOR STRESS PERIOD   13   TIME STEP   21
 
 SOLVING FOR HEAD 
                                                   Max.-Head-Change                         Max.-Flux-Residual
  Residual-Control   Outer-Iter.   Inner-Iter.     Column Row Layer    Maximum-Head-Change  Column Row Layer    Maximum-Flux-Residual          L2-NORM 
          0                 1           2             4    7     1       0.3311544428E-02       4    7    1         0.1744171159E+00      0.4635507700E+00
          0                 2           2             4    7     1      -0.3281442448E-03       4    7    1        -0.1744173103E-01      0.4635499857E-01
          0                 3           1             4    7     1       0.2926474810E-04       4    7    1         0.1569755808E-02      0.4171945057E-02

    ------------------------------------------------
       NWT REQUIRED            3 OUTER ITERATIONS 
       AND A TOTAL OF          5 INNER ITERATIONS.
    ------------------------------------------------

 NO OUTPUT CONTROL FOR STRESS PERIOD   13   TIME STEP   22
 
 SOLVING FOR HEAD 
                                                   Max.-Head-Change                         Max.-Flux-Residual
  Residual-Control   Outer-Iter.   Inner-Iter.     Column Row Layer    Maximum-Head-Change  Column Row Layer    Maximum-Flux-Residual          L2-NORM 
          0                 1           2             4    7     1       0.3269640759E-02       4    7    1         0.1722023035E+00      0.4591888602E+00
          0                 2           2             4    7     1      -0.3239919636E-03       4    7    1        -0.1722024925E-01      0.4591870331E-01
          0                 3           1             4    7     1       0.2889443636E-04       4    7    1         0.1549822424E-02      0.4132670680E-02

    ------------------------------------------------
       NWT REQUIRED            3 OUTER ITERATIONS 
       AND A TOTAL OF          5 INNER ITERATIONS.
    ------------------------------------------------

 NO OUTPUT CONTROL FOR STRESS PERIOD   13   TIME STEP   23
 
 SOLVING FOR HEAD 
                                                   Max.-Head-Change                         Max.-Flux-Residual
  Residual-Control   Outer-Iter.   Inner-Iter.     Column Row Layer    Maximum-Head-Change  Column Row Layer    Maximum-Flux-Residual          L2-NORM 
          0                 1           2             4    7     1       0.3228229098E-02       4    7    1         0.1700131624E+00      0.4549053610E+00
          0                 2           2             4    7     1      -0.3198884366E-03       4    7    1        -0.1700133461E-01      0.4549047391E-01
          0                 3           1             4    7     1       0.2852847346E-04       4    7    1         0.1530120109E-02      0.4094147301E-02

    ------------------------------------------------
       NWT REQUIRED            3 OUTER ITERATIONS 
       AND A TOTAL OF          5 INNER ITERATIONS.
    ------------------------------------------------

 NO OUTPUT CONTROL FOR STRESS PERIOD   13   TIME STEP   24
 
 SOLVING FOR HEAD 
                                                   Max.-Head-Change                         Max.-Flux-Residual
  Residual-Control   Outer-Iter.   Inner-Iter.     Column Row Layer    Maximum-Head-Change  Column Row Layer    Maximum-Flux-Residual          L2-NORM 
          0                 1           2             4    7     1       0.3187579136E-02       4    7    1         0.1678643735E+00      0.4506990477E+00
          0                 2           2             4    7     1      -0.3158603868E-03       4    7    1        -0.1678645518E-01      0.4506984142E-01
          0                 3           1             4    7     1       0.2816924159E-04       4    7    1         0.1510780971E-02      0.4056278029E-02

    ------------------------------------------------
       NWT REQUIRED            3 OUTER ITERATIONS 
       AND A TOTAL OF          5 INNER ITERATIONS.
    ------------------------------------------------

 NO OUTPUT CONTROL FOR STRESS PERIOD   13   TIME STEP   25
 
 SOLVING FOR HEAD 
                                                   Max.-Head-Change                         Max.-Flux-Residual
  Residual-Control   Outer-Iter.   Inner-Iter.     Column Row Layer    Maximum-Head-Change  Column Row Layer    Maximum-Flux-Residual          L2-NORM 
          0                 1           2             4    7     1       0.3147668431E-02       4    7    1         0.1657551080E+00      0.4465556331E+00
          0                 2           2             4    7     1      -0.3119055909E-03       4    7    1        -0.1657552813E-01      0.4465549754E-01
          0                 3           1             4    7     1       0.2781654281E-04       4    7    1         0.1491797537E-02      0.4018993575E-02

    ------------------------------------------------
       NWT REQUIRED            3 OUTER ITERATIONS 
       AND A TOTAL OF          5 INNER ITERATIONS.
    ------------------------------------------------

 NO OUTPUT CONTROL FOR STRESS PERIOD   13   TIME STEP   26
 
 SOLVING FOR HEAD 
                                                   Max.-Head-Change                         Max.-Flux-Residual
  Residual-Control   Outer-Iter.   Inner-Iter.     Column Row Layer    Maximum-Head-Change  Column Row Layer    Maximum-Flux-Residual          L2-NORM 
          0                 1           2             4    7     1       0.3108215419E-02       4    7    1         0.1636693783E+00      0.4424911632E+00
          0                 2           2             4    7     1      -0.3079961492E-03       4    7    1        -0.1636695468E-01      0.4424906105E-01
          0                 3           1             4    7     1       0.2746788883E-04       4    7    1         0.1473025930E-02      0.3982407670E-02

    ------------------------------------------------
       NWT REQUIRED            3 OUTER ITERATIONS 
       AND A TOTAL OF          5 INNER ITERATIONS.
    ------------------------------------------------

 NO OUTPUT CONTROL FOR STRESS PERIOD   13   TIME STEP   27
 
 SOLVING FOR HEAD 
                                                   Max.-Head-Change                         Max.-Flux-Residual
  Residual-Control   Outer-Iter.   Inner-Iter.     Column Row Layer    Maximum-Head-Change  Column Row Layer    Maximum-Flux-Residual          L2-NORM 
          0                 1           2             4    7     1       0.3069757857E-02       4    7    1         0.1616370437E+00      0.4384980902E+00
          0                 2           2             4    7     1      -0.3041853472E-03       4    7    1        -0.1616372074E-01      0.4384976866E-01
          0                 3           1             4    7     1       0.2712803201E-04       4    7    1         0.1454734894E-02      0.3946482890E-02

    ------------------------------------------------
       NWT REQUIRED            3 OUTER ITERATIONS 
       AND A TOTAL OF          5 INNER ITERATIONS.
    ------------------------------------------------

 NO OUTPUT CONTROL FOR STRESS PERIOD   13   TIME STEP   28
 
 SOLVING FOR HEAD 
                                                   Max.-Head-Change                         Max.-Flux-Residual
  Residual-Control   Outer-Iter.   Inner-Iter.     Column Row Layer    Maximum-Head-Change  Column Row Layer    Maximum-Flux-Residual          L2-NORM 
          0                 1           2             4    7     1       0.3031428788E-02       4    7    1         0.1596118921E+00      0.4403998972E+00
          0                 2           2             4    7     1      -0.3003872781E-03       4    7    1        -0.1596120514E-01      0.4403995668E-01
          0                 3           1             4    7     1       0.2678931028E-04       4    7    1         0.1436508488E-02      0.3963601223E-02

    ------------------------------------------------
       NWT REQUIRED            3 OUTER ITERATIONS 
       AND A TOTAL OF          5 INNER ITERATIONS.
    ------------------------------------------------

 NO OUTPUT CONTROL FOR STRESS PERIOD   13   TIME STEP   29
 
 SOLVING FOR HEAD 
                                                   Max.-Head-Change                         Max.-Flux-Residual
  Residual-Control   Outer-Iter.   Inner-Iter.     Column Row Layer    Maximum-Head-Change  Column Row Layer    Maximum-Flux-Residual          L2-NORM 
          0                 1           2             4    7     1       0.2993668396E-02       4    7    1         0.1576378765E+00      0.4423653479E+00
          0                 2           2             4    7     1      -0.2966455586E-03       4    7    1        -0.1576380320E-01      0.4423649714E-01
          0                 3           1             4    7     1       0.2645561398E-04       4    7    1         0.1418742306E-02      0.3981294168E-02

    ------------------------------------------------
       NWT REQUIRED            3 OUTER ITERATIONS 
       AND A TOTAL OF          5 INNER ITERATIONS.
    ------------------------------------------------

 NO OUTPUT CONTROL FOR STRESS PERIOD   13   TIME STEP   30



 STREAM LISTING     PERIOD     13   STEP       30

 LAYER ROW COL. STREAM  RCH.  FLOW INTO     FLOW TO   FLOW OUT OF   OVRLND.     DIRECT     STREAM       STREAM     STREAM     STREAM   STREAMBED  STREAMBED
                SEG.NO.  NO.  STRM. RCH.    AQUIFER    STRM. RCH.    RUNOFF     PRECIP       ET          HEAD       DEPTH      WIDTH   CONDCTNC.   GRADIENT

   1    1    1     1     1    3.1000E+00  7.9303E-02   3.0207E+00  0.000E+00  0.000E+00  0.000E+00  1.09369E+03  6.377E-01  4.844E+00  2.180E-02  1.213E+00
   1    2    2     1     2    3.0207E+00  1.2174E-01   2.8990E+00  0.000E+00  0.000E+00  0.000E+00  1.08869E+03  6.304E-01  4.791E+00  3.353E-02  1.210E+00
   1    3    3     1     3    2.8990E+00  1.0276E-01   2.7962E+00  0.000E+00  0.000E+00  0.000E+00  1.08304E+03  6.219E-01  4.729E+00  2.837E-02  1.207E+00
   1    3    4     1     4    2.7962E+00  9.3747E-02   2.7024E+00  0.000E+00  0.000E+00  0.000E+00  1.07802E+03  6.144E-01  4.673E+00  2.594E-02  1.205E+00
   1    4    5     2     1    7.0245E-01  2.4385E-01   4.5860E-01  0.000E+00  0.000E+00  0.000E+00  1.07206E+03  1.263E-01  1.200E+01  7.800E-02  1.042E+00
   1    5    6     2     2    4.5860E-01  1.8574E-01   2.7285E-01  0.000E+00  0.000E+00  0.000E+00  1.06661E+03  9.573E-02  1.200E+01  6.000E-02  1.032E+00
   1    6    6     2     3    2.7285E-01  1.8377E-01   8.9086E-02  0.000E+00  0.000E+00  0.000E+00  1.06186E+03  6.276E-02  1.200E+01  6.000E-02  1.021E+00
   1    7    6     2     4    8.9086E-02  8.9086E-02   0.0000E+00  0.000E+00  0.000E+00  0.000E+00  1.05708E+03  9.230E-03  1.200E+01  6.000E-02  1.003E+00
   1    8    6     2     5    0.0000E+00  0.0000E+00   0.0000E+00  0.000E+00  0.000E+00  0.000E+00  1.05236E+03  0.000E+00  1.200E+01  6.000E-02  1.000E+00
   1    3    5     3     1    2.0000E+00  2.8252E-01   1.7175E+00  0.000E+00  0.000E+00  0.000E+00  1.07555E+03  1.909E+00  9.636E+00  7.227E-02  1.955E+00
   1    3    6     3     2    1.7175E+00  2.4905E-01   1.4684E+00  0.000E+00  0.000E+00  0.000E+00  1.07264E+03  1.727E+00  8.909E+00  6.682E-02  1.864E+00
   1    3    7     3     3    1.4684E+00  1.9718E-01   1.2712E+00  0.000E+00  0.000E+00  0.000E+00  1.06987E+03  1.555E+00  8.218E+00  5.547E-02  1.777E+00
   1    4    8     3     4    1.2712E+00  2.2567E-01   1.0456E+00  0.000E+00  0.000E+00  0.000E+00  1.06682E+03  1.364E+00  7.455E+00  6.709E-02  1.682E+00
   1    5    8     3     5    1.0456E+00  1.5790E-01   8.8768E-01  0.000E+00  0.000E+00  0.000E+00  1.06362E+03  1.164E+00  6.655E+00  4.991E-02  1.582E+00
   1    6    8     3     6    8.8768E-01  5.5980E-02   8.3170E-01  0.000E+00  0.000E+00  0.000E+00  1.06158E+03  1.036E+00  6.145E+00  1.844E-02  1.518E+00
   1    5   10     4     1    1.0000E+01  9.0919E-02   9.9091E+00  0.000E+00  0.000E+00  0.000E+00  1.07836E+03  6.368E-01  1.000E+01  2.500E-02  1.212E+00
   1    5    9     4     2    9.9091E+00  1.8158E-01   9.7275E+00  0.000E+00  0.000E+00  0.000E+00  1.07154E+03  6.315E-01  1.000E+01  5.000E-02  1.211E+00
   1    6    8     4     3    9.7275E+00  1.2689E-01   9.6006E+00  0.000E+00  0.000E+00  0.000E+00  1.06381E+03  6.256E-01  1.000E+01  3.500E-02  1.209E+00
   1    6    8     5     1    1.0432E+01  2.2686E-01   1.0205E+01  0.000E+00  0.000E+00  0.000E+00  1.05868E+03  6.790E-01  1.542E+01  6.166E-02  1.226E+00
   1    7    7     5     2    1.0205E+01  2.7894E-01   9.9265E+00  0.000E+00  0.000E+00  0.000E+00  1.05417E+03  6.732E-01  1.519E+01  7.594E-02  1.224E+00
   1    8    7     5     3    9.9265E+00  1.9221E-01   9.7343E+00  0.000E+00  0.000E+00  0.000E+00  1.04992E+03  6.676E-01  1.497E+01  5.241E-02  1.223E+00
   1    8    6     5     4    9.7343E+00  1.3577E-01   9.5985E+00  0.000E+00  0.000E+00  0.000E+00  1.04691E+03  6.637E-01  1.482E+01  3.706E-02  1.221E+00
   1    9    6     6     1    9.5985E+00  2.2097E-01   9.3776E+00  0.000E+00  0.000E+00  0.000E+00  1.04341E+03  6.828E-01  1.200E+01  6.000E-02  1.228E+00
   1   10    7     6     2    9.3776E+00  2.2039E-01   9.1572E+00  0.000E+00  0.000E+00  0.000E+00  1.03885E+03  6.732E-01  1.200E+01  6.000E-02  1.224E+00
   1   11    7     6     3    9.1572E+00  2.1981E-01   8.9374E+00  0.000E+00  0.000E+00  0.000E+00  1.03430E+03  6.636E-01  1.200E+01  6.000E-02  1.221E+00
   1   12    7     6     4    8.9374E+00  2.1923E-01   8.7181E+00  0.000E+00  0.000E+00  0.000E+00  1.02974E+03  6.539E-01  1.200E+01  6.000E-02  1.218E+00
   1   13    7     6     5    8.7181E+00 -1.1030E-01   8.8284E+00  0.000E+00  0.000E+00  0.000E+00  1.02656E+03  6.514E-01  1.200E+01  2.400E-01 -1.532E-01
   1   14    9     7     1    1.5000E+02  1.3392E+00   1.4866E+02  0.000E+00  0.000E+00  0.000E+00  1.03987E+03  2.288E+00  5.529E+01  5.593E-01  7.981E-01
   1   13    8     7     2    1.4866E+02  1.8432E+00   1.4682E+02  0.000E+00  0.000E+00  0.000E+00  1.03478E+03  2.279E+00  5.526E+01  6.148E-01  9.994E-01
   1   13    7     7     3    1.4682E+02  1.4908E+00   1.4533E+02  0.000E+00  0.000E+00  0.000E+00  1.02969E+03  2.270E+00  5.522E+01  5.584E-01  8.899E-01
   1   13    6     8     1    1.5416E+02  8.5194E-01   1.5330E+02  0.000E+00  0.000E+00  0.000E+00  1.02472E+03  2.843E+00  4.122E+01  4.201E-01  6.760E-01
   1   13    5     8     2    1.5330E+02  1.2601E-01   1.5318E+02  0.000E+00  0.000E+00  0.000E+00  1.01846E+03  2.840E+00  4.117E+01  4.196E-01  1.001E-01
   1   13    4     8     3    1.5318E+02 -2.5967E+00   1.5577E+02  0.000E+00  0.000E+00  0.000E+00  1.01222E+03  2.848E+00  4.130E+01  4.208E+00 -2.057E-01
   1   13    3     8     4    1.5577E+02 -3.7146E+00   1.5949E+02  0.000E+00  0.000E+00  0.000E+00  1.00599E+03  2.870E+00  4.161E+01  4.240E+00 -2.920E-01
   1   13    2     8     5    1.5949E+02 -2.5932E+00   1.6208E+02  0.000E+00  0.000E+00  0.000E+00  9.99766E+02  2.891E+00  4.192E+01  4.272E+00 -2.023E-01
   1   13    1     8     6    1.6208E+02 -1.9755E+00   1.6406E+02  0.000E+00  0.000E+00  0.000E+00  9.94781E+02  2.906E+00  4.214E+01  2.577E+00 -2.556E-01
   1    6    8     9     1    0.0000E+00  0.0000E+00   0.0000E+00  0.000E+00  0.000E+00  0.000E+00  1.07850E+03  0.000E+00  4.000E+00  0.000E+00  1.000E+00





UNSATURATED ZONE PACKAGE VOLUMETRIC BUDGET FOR  TIME STEP    30 STRESS PERIOD   13
  ------------------------------------------------------------------------------



     CUMULATIVE VOLUMES      L**3       RATES FOR THIS TIME STEP      L**3/T
     ------------------                 ------------------------

           IN:                                      IN:
           ---                                      ---
        INFILTRATION =    69752645.8242          INFILTRATION =       0.0000E+00

          OUT:                                     OUT:
          ----                                     ----
              UZF ET =    47511460.1309                UZF ET =           0.0124
        UZF RECHARGE =       73224.0000          UZF RECHARGE =       0.0000E+00

            IN - OUT =    22167961.6934              IN - OUT =          -0.0124

          STORAGE:                                 STORAGE:
          --------                                 --------
      STORAGE CHANGE =    22167620.7410        STORAGE CHANGE =          -0.0124

 PERCENT DISCREPANCY IS DIFFERENCE BETWEEN IN-OUT MINUS CHANGE IN STORAGE
 DIVIDED BY THE AVERAGE OF IN AND OUT TIMES 100

 PERCENT DISCREPANCY =           0.00     PERCENT DISCREPANCY =           0.00






1
  VOLUMETRIC BUDGET FOR ENTIRE MODEL AT END OF TIME STEP   30, STRESS PERIOD  13
  ------------------------------------------------------------------------------

     CUMULATIVE VOLUMES      L**3       RATES FOR THIS TIME STEP      L**3/T
     ------------------                 ------------------------

           IN:                                      IN:
           ---                                      ---
    AWU WELLS            =    69679416.0000      AWU WELLS            =           0.0000
    DIVERSION SEGMENTS   =           0.0000      DIVERSION SEGMENTS   =           0.0000
    GW IRRIGATION        =           0.0000      GW IRRIGATION        =           0.0000
    SW IRRIGATION        =           0.0000      SW IRRIGATION        =           0.0000
    EFFICIENCY FACTOR GW =           0.0000      EFFICIENCY FACTOR GW =           0.0000
    EFFICIENCY FACTOR SW =           0.0000      EFFICIENCY FACTOR SW =           0.0000

                TOTAL IN =    69679416.0000                  TOTAL IN =           0.0000

          OUT:                                     OUT:
          ----                                     ----
    AWU WELLS            =           0.0000      AWU WELLS            =           0.0000
    DIVERSION SEGMENTS   =           0.0000      DIVERSION SEGMENTS   =           0.0000
    GW IRRIGATION        =    69679416.0000      GW IRRIGATION        =           0.0000
    SW IRRIGATION        =           0.0000      SW IRRIGATION        =           0.0000
    EFFICIENCY FACTOR GW =           0.0000      EFFICIENCY FACTOR GW =           0.0000
    EFFICIENCY FACTOR SW =           0.0000      EFFICIENCY FACTOR SW =           0.0000

               TOTAL OUT =    69679416.0000                 TOTAL OUT =           0.0000

                IN - OUT =           0.0000                  IN - OUT =           0.0000

     PERCENT DISCREPANCY =           0.00         PERCENT DISCREPANCY =           0.00



1
  VOLUMETRIC BUDGET FOR ENTIRE MODEL AT END OF TIME STEP   30, STRESS PERIOD  13
  ------------------------------------------------------------------------------

     CUMULATIVE VOLUMES      L**3       RATES FOR THIS TIME STEP      L**3/T
     ------------------                 ------------------------

           IN:                                      IN:
           ---                                      ---
             STORAGE     =   118688040.0000               STORAGE     =           2.0442
       CONSTANT HEAD     =           0.0000         CONSTANT HEAD     =           0.0000
     HEAD DEP BOUNDS     =     9040399.0000       HEAD DEP BOUNDS     =           0.2860
      STREAM LEAKAGE     =   374792224.0000        STREAM LEAKAGE     =          10.0330
        UZF RECHARGE     =       73223.9531          UZF RECHARGE     =           0.0000
               GW ET     =           0.0000                 GW ET     =           0.0000
     SURFACE LEAKAGE     =           0.0000       SURFACE LEAKAGE     =           0.0000
    AWU WELLS            =           0.0000      AWU WELLS            =           0.0000

                TOTAL IN =   502593888.0000                  TOTAL IN =          12.3633

          OUT:                                     OUT:
          ----                                     ----
             STORAGE     =    65478648.0000               STORAGE     =           1.0754
       CONSTANT HEAD     =           0.0000         CONSTANT HEAD     =           0.0000
     HEAD DEP BOUNDS     =     9062543.0000       HEAD DEP BOUNDS     =           0.2868
      STREAM LEAKAGE     =   304584448.0000        STREAM LEAKAGE     =          10.9903
        UZF RECHARGE     =           0.0000          UZF RECHARGE     =           0.0000
               GW ET     =    53779708.0000                 GW ET     =       1.0003E-02
     SURFACE LEAKAGE     =           0.0000       SURFACE LEAKAGE     =           0.0000
    AWU WELLS            =    69679416.0000      AWU WELLS            =           0.0000

               TOTAL OUT =   502584768.0000                 TOTAL OUT =          12.3626

                IN - OUT =        9120.0000                  IN - OUT =       7.0286E-04

     PERCENT DISCREPANCY =           0.00         PERCENT DISCREPANCY =           0.01






         TIME SUMMARY AT END OF TIME STEP   30 IN STRESS PERIOD   13
                    SECONDS     MINUTES      HOURS       DAYS        YEARS
                    -----------------------------------------------------------
   TIME STEP LENGTH  87600.      1460.0      24.333      1.0139     2.77588E-03
 STRESS PERIOD TIME 2.62800E+06  43800.      730.00      30.417     8.32763E-02
         TOTAL TIME 3.16224E+07 5.27040E+05  8784.0      366.00      1.0021    
1
1
                            STRESS PERIOD NO.   14, LENGTH =   2628000.    
                            -----------------------------------------------

                              NUMBER OF TIME STEPS =    30

                               MULTIPLIER FOR DELT =     1.000

                            INITIAL TIME STEP SIZE =   87600.00    

 REUSING NON-PARAMETER GHB CELLS FROM LAST STRESS PERIOD

      2 GHB CELLS

 REUSING STREAM SEGMENT DATA FROM LAST STRESS PERIOD



            AREAL INFILTRATION RATE
 READING ON UNIT   19 WITH FORMAT: (10F4.0)            

            1           2           3           4           5           6           7           8           9          10
 ........................................................................................................................
   1    0.000       0.000       0.000       0.000       0.000       0.000       0.000       0.000       0.000       0.000    
   2    0.000       0.000       0.000       0.000       0.000       0.000       0.000       0.000       0.000       0.000    
   3    0.000       0.000       0.000       0.000       0.000       0.000       0.000       0.000       0.000       0.000    
   4    0.000       0.000       0.000       0.000       0.000       0.000       0.000       0.000       0.000       0.000    
   5    0.000       0.000       0.000       0.000       0.000       0.000       0.000       0.000       0.000       0.000    
   6    0.000       0.000       0.000       0.000       0.000       0.000       0.000       0.000       0.000       0.000    
   7    0.000       0.000       0.000       0.000       0.000       0.000       0.000       0.000       0.000       0.000    
   8    0.000       0.000       0.000       0.000       0.000       0.000       0.000       0.000       0.000       0.000    
   9    0.000       0.000       0.000       0.000       0.000       0.000       0.000       0.000       0.000       0.000    
  10    0.000       0.000       0.000       0.000       0.000       0.000       0.000       0.000       0.000       0.000    
  11    0.000       0.000       0.000       0.000       0.000       0.000       0.000       0.000       0.000       0.000    
  12    0.000       0.000       0.000       0.000       0.000       0.000       0.000       0.000       0.000       0.000    
  13    0.000       0.000       0.000       0.000       0.000       0.000       0.000       0.000       0.000       0.000    
  14    0.000       0.000       0.000       0.000       0.000       0.000       0.000       0.000       0.000       0.000    
  15    0.000       0.000       0.000       0.000       0.000       0.000       0.000       0.000       0.000       0.000    

                  ET RATE =  1.000000E-10

 USING ET EXTINCTION DEPTH FROM PREVIOUS STRESS PERIOD. CURRENT PERIOD IS:      14

 USING EXTINCTION WATER CONTENT FROM PREVIOUS STRESS PERIOD. CURRENT PERIOD IS:      14

 PROCESSING AWU STRESS PERIOD DATA

 READING AWU STRESS PERIOD DATA

 READING IRRIGATION WELL

 END PROCESSING AWU STRESS PERIOD DATA OPTIONS
 
 SOLVING FOR HEAD 
                                                   Max.-Head-Change                         Max.-Flux-Residual
  Residual-Control   Outer-Iter.   Inner-Iter.     Column Row Layer    Maximum-Head-Change  Column Row Layer    Maximum-Flux-Residual          L2-NORM 
          0                 1           2             4    7     1       0.2955954026E-02       4    7    1         0.1556637072E+00      0.4369194726E+00
          0                 2           2             4    7     1      -0.2929084019E-03       4    7    1        -0.1556638591E-01      0.4369191297E-01
          0                 3           1             4    7     1       0.2612232487E-04       4    7    1         0.1400974752E-02      0.3932267837E-02

    ------------------------------------------------
       NWT REQUIRED            3 OUTER ITERATIONS 
       AND A TOTAL OF          5 INNER ITERATIONS.
    ------------------------------------------------

 NO OUTPUT CONTROL FOR STRESS PERIOD   14   TIME STEP    1
 
 SOLVING FOR HEAD 
                                                   Max.-Head-Change                         Max.-Flux-Residual
  Residual-Control   Outer-Iter.   Inner-Iter.     Column Row Layer    Maximum-Head-Change  Column Row Layer    Maximum-Flux-Residual          L2-NORM 
          0                 1           2             4    7     1       0.2918595396E-02       4    7    1         0.1537067509E+00      0.4316919765E+00
          0                 2           2             4    7     1      -0.2892064957E-03       4    7    1        -0.1537068989E-01      0.4316916369E-01
          0                 3           1             4    7     1       0.2579217926E-04       4    7    1         0.1383362116E-02      0.3885223939E-02

    ------------------------------------------------
       NWT REQUIRED            3 OUTER ITERATIONS 
       AND A TOTAL OF          5 INNER ITERATIONS.
    ------------------------------------------------

 NO OUTPUT CONTROL FOR STRESS PERIOD   14   TIME STEP    2
 
 SOLVING FOR HEAD 
                                                   Max.-Head-Change                         Max.-Flux-Residual
  Residual-Control   Outer-Iter.   Inner-Iter.     Column Row Layer    Maximum-Head-Change  Column Row Layer    Maximum-Flux-Residual          L2-NORM 
          0                 1           2             4    7     1       0.2881618409E-02       4    7    1         0.1517682545E+00      0.4266609686E+00
          0                 2           2             4    7     1      -0.2855424070E-03       4    7    1        -0.1517683989E-01      0.4266607372E-01
          0                 3           1             4    7     1       0.2546540654E-04       4    7    1         0.1365915614E-02      0.3839946898E-02

    ------------------------------------------------
       NWT REQUIRED            3 OUTER ITERATIONS 
       AND A TOTAL OF          5 INNER ITERATIONS.
    ------------------------------------------------

 NO OUTPUT CONTROL FOR STRESS PERIOD   14   TIME STEP    3
 
 SOLVING FOR HEAD 
                                                   Max.-Head-Change                         Max.-Flux-Residual
  Residual-Control   Outer-Iter.   Inner-Iter.     Column Row Layer    Maximum-Head-Change  Column Row Layer    Maximum-Flux-Residual          L2-NORM 
          0                 1           2             4    7     1       0.2845051595E-02       4    7    1         0.1498495622E+00      0.4218106348E+00
          0                 2           2             4    7     1      -0.2819189626E-03       4    7    1        -0.1498497028E-01      0.4218103119E-01
          0                 3           1             4    7     1       0.2514225867E-04       4    7    1         0.1348647354E-02      0.3796279562E-02

    ------------------------------------------------
       NWT REQUIRED            3 OUTER ITERATIONS 
       AND A TOTAL OF          5 INNER ITERATIONS.
    ------------------------------------------------

 NO OUTPUT CONTROL FOR STRESS PERIOD   14   TIME STEP    4
 
 SOLVING FOR HEAD 
                                                   Max.-Head-Change                         Max.-Flux-Residual
  Residual-Control   Outer-Iter.   Inner-Iter.     Column Row Layer    Maximum-Head-Change  Column Row Layer    Maximum-Flux-Residual          L2-NORM 
          0                 1           2             4    7     1       0.2808636486E-02       4    7    1         0.1479373310E+00      0.4171216100E+00
          0                 2           2             4    7     1      -0.2783105505E-03       4    7    1        -0.1479374677E-01      0.4171214599E-01
          0                 3           1             4    7     1       0.2482045096E-04       4    7    1         0.1331437243E-02      0.3754098960E-02

    ------------------------------------------------
       NWT REQUIRED            3 OUTER ITERATIONS 
       AND A TOTAL OF          5 INNER ITERATIONS.
    ------------------------------------------------

 NO OUTPUT CONTROL FOR STRESS PERIOD   14   TIME STEP    5
 
 SOLVING FOR HEAD 
                                                   Max.-Head-Change                         Max.-Flux-Residual
  Residual-Control   Outer-Iter.   Inner-Iter.     Column Row Layer    Maximum-Head-Change  Column Row Layer    Maximum-Flux-Residual          L2-NORM 
          0                 1           2             4    7     1       0.2772676617E-02       4    7    1         0.1460477961E+00      0.4125963650E+00
          0                 2           2             4    7     1      -0.2747472495E-03       4    7    1        -0.1460479294E-01      0.4125961535E-01
          0                 3           1             4    7     1       0.2450266694E-04       4    7    1         0.1314431405E-02      0.3713358926E-02

    ------------------------------------------------
       NWT REQUIRED            3 OUTER ITERATIONS 
       AND A TOTAL OF          5 INNER ITERATIONS.
    ------------------------------------------------

 NO OUTPUT CONTROL FOR STRESS PERIOD   14   TIME STEP    6
 
 SOLVING FOR HEAD 
                                                   Max.-Head-Change                         Max.-Flux-Residual
  Residual-Control   Outer-Iter.   Inner-Iter.     Column Row Layer    Maximum-Head-Change  Column Row Layer    Maximum-Flux-Residual          L2-NORM 
          0                 1           2             4    7     1       0.2736911489E-02       4    7    1         0.1441670601E+00      0.4082072900E+00
          0                 2           2             4    7     1      -0.2712032449E-03       4    7    1        -0.1441671898E-01      0.4082074990E-01
          0                 3           1             4    7     1       0.2418660350E-04       4    7    1         0.1297504745E-02      0.3673920447E-02

    ------------------------------------------------
       NWT REQUIRED            3 OUTER ITERATIONS 
       AND A TOTAL OF          5 INNER ITERATIONS.
    ------------------------------------------------

 NO OUTPUT CONTROL FOR STRESS PERIOD   14   TIME STEP    7
 
 SOLVING FOR HEAD 
                                                   Max.-Head-Change                         Max.-Flux-Residual
  Residual-Control   Outer-Iter.   Inner-Iter.     Column Row Layer    Maximum-Head-Change  Column Row Layer    Maximum-Flux-Residual          L2-NORM 
          0                 1           2             4    7     1       0.2701901629E-02       4    7    1         0.1423260776E+00      0.4039588322E+00
          0                 2           2             4    7     1      -0.2677340807E-03       4    7    1        -0.1423262039E-01      0.4039587049E-01
          0                 3           1             4    7     1       0.2387721411E-04       4    7    1         0.1280935862E-02      0.3635623463E-02

    ------------------------------------------------
       NWT REQUIRED            3 OUTER ITERATIONS 
       AND A TOTAL OF          5 INNER ITERATIONS.
    ------------------------------------------------

 NO OUTPUT CONTROL FOR STRESS PERIOD   14   TIME STEP    8
 
 SOLVING FOR HEAD 
                                                   Max.-Head-Change                         Max.-Flux-Residual
  Residual-Control   Outer-Iter.   Inner-Iter.     Column Row Layer    Maximum-Head-Change  Column Row Layer    Maximum-Flux-Residual          L2-NORM 
          0                 1           2             4    7     1       0.2667104254E-02       4    7    1         0.1404946372E+00      0.3998326626E+00
          0                 2           2             4    7     1      -0.2642859723E-03       4    7    1        -0.1404947600E-01      0.3998325517E-01
          0                 3           1             4    7     1       0.2356970321E-04       4    7    1         0.1264452884E-02      0.3598495183E-02

    ------------------------------------------------
       NWT REQUIRED            3 OUTER ITERATIONS 
       AND A TOTAL OF          5 INNER ITERATIONS.
    ------------------------------------------------

 NO OUTPUT CONTROL FOR STRESS PERIOD   14   TIME STEP    9
 
 SOLVING FOR HEAD 
                                                   Max.-Head-Change                         Max.-Flux-Residual
  Residual-Control   Outer-Iter.   Inner-Iter.     Column Row Layer    Maximum-Head-Change  Column Row Layer    Maximum-Flux-Residual          L2-NORM 
          0                 1           2             4    7     1       0.2632808976E-02       4    7    1         0.1386890475E+00      0.3958330704E+00
          0                 2           2             4    7     1      -0.2608876167E-03       4    7    1        -0.1386891669E-01      0.3958329828E-01
          0                 3           1             4    7     1       0.2326662907E-04       4    7    1         0.1248202526E-02      0.3562500509E-02

    ------------------------------------------------
       NWT REQUIRED            3 OUTER ITERATIONS 
       AND A TOTAL OF          5 INNER ITERATIONS.
    ------------------------------------------------

 NO OUTPUT CONTROL FOR STRESS PERIOD   14   TIME STEP   10
 
 SOLVING FOR HEAD 
                                                   Max.-Head-Change                         Max.-Flux-Residual
  Residual-Control   Outer-Iter.   Inner-Iter.     Column Row Layer    Maximum-Head-Change  Column Row Layer    Maximum-Flux-Residual          L2-NORM 
          0                 1           2             4    7     1       0.2598750244E-02       4    7    1         0.1368946871E+00      0.3919400063E+00
          0                 2           2             4    7     1      -0.2575127013E-03       4    7    1        -0.1368948033E-01      0.3919398606E-01
          0                 3           1             4    7     1       0.2296564561E-04       4    7    1         0.1232053279E-02      0.3527465509E-02

    ------------------------------------------------
       NWT REQUIRED            3 OUTER ITERATIONS 
       AND A TOTAL OF          5 INNER ITERATIONS.
    ------------------------------------------------

 NO OUTPUT CONTROL FOR STRESS PERIOD   14   TIME STEP   11
 
 SOLVING FOR HEAD 
                                                   Max.-Head-Change                         Max.-Flux-Residual
  Residual-Control   Outer-Iter.   Inner-Iter.     Column Row Layer    Maximum-Head-Change  Column Row Layer    Maximum-Flux-Residual          L2-NORM 
          0                 1           2             4    7     1       0.2565479520E-02       4    7    1         0.1351422499E+00      0.3881507952E+00
          0                 2           2             4    7     1      -0.2542158700E-03       4    7    1        -0.1351423628E-01      0.3881508327E-01
          0                 3           1             4    7     1       0.2267162550E-04       4    7    1         0.1216281300E-02      0.3493363055E-02

    ------------------------------------------------
       NWT REQUIRED            3 OUTER ITERATIONS 
       AND A TOTAL OF          5 INNER ITERATIONS.
    ------------------------------------------------

 NO OUTPUT CONTROL FOR STRESS PERIOD   14   TIME STEP   12
 
 SOLVING FOR HEAD 
                                                   Max.-Head-Change                         Max.-Flux-Residual
  Residual-Control   Outer-Iter.   Inner-Iter.     Column Row Layer    Maximum-Head-Change  Column Row Layer    Maximum-Flux-Residual          L2-NORM 
          0                 1           2             4    7     1       0.2532443351E-02       4    7    1         0.1334010528E+00      0.3844630910E+00
          0                 2           2             4    7     1      -0.2509422815E-03       4    7    1        -0.1334011627E-01      0.3844630862E-01
          0                 3           1             4    7     1       0.2237967839E-04       4    7    1         0.1200610492E-02      0.3460172969E-02

    ------------------------------------------------
       NWT REQUIRED            3 OUTER ITERATIONS 
       AND A TOTAL OF          5 INNER ITERATIONS.
    ------------------------------------------------

 NO OUTPUT CONTROL FOR STRESS PERIOD   14   TIME STEP   13
 
 SOLVING FOR HEAD 
                                                   Max.-Head-Change                         Max.-Flux-Residual
  Residual-Control   Outer-Iter.   Inner-Iter.     Column Row Layer    Maximum-Head-Change  Column Row Layer    Maximum-Flux-Residual          L2-NORM 
          0                 1           2             4    7     1       0.2499924893E-02       4    7    1         0.1316868513E+00      0.3808667470E+00
          0                 2           2             4    7     1      -0.2477199930E-03       4    7    1        -0.1316869580E-01      0.3808667136E-01
          0                 3           1             4    7     1       0.2209230630E-04       4    7    1         0.1185182650E-02      0.3427812586E-02

    ------------------------------------------------
       NWT REQUIRED            3 OUTER ITERATIONS 
       AND A TOTAL OF          5 INNER ITERATIONS.
    ------------------------------------------------

 NO OUTPUT CONTROL FOR STRESS PERIOD   14   TIME STEP   14
 
 SOLVING FOR HEAD 
                                                   Max.-Head-Change                         Max.-Flux-Residual
  Residual-Control   Outer-Iter.   Inner-Iter.     Column Row Layer    Maximum-Head-Change  Column Row Layer    Maximum-Flux-Residual          L2-NORM 
          0                 1           2             4    7     1       0.2467652891E-02       4    7    1         0.1299846890E+00      0.3773565539E+00
          0                 2           2             4    7     1      -0.2445221266E-03       4    7    1        -0.1299847927E-01      0.3773565886E-01
          0                 3           1             4    7     1       0.2180711257E-04       4    7    1         0.1169863168E-02      0.3396211901E-02

    ------------------------------------------------
       NWT REQUIRED            3 OUTER ITERATIONS 
       AND A TOTAL OF          5 INNER ITERATIONS.
    ------------------------------------------------

 NO OUTPUT CONTROL FOR STRESS PERIOD   14   TIME STEP   15
 
 SOLVING FOR HEAD 
                                                   Max.-Head-Change                         Max.-Flux-Residual
  Residual-Control   Outer-Iter.   Inner-Iter.     Column Row Layer    Maximum-Head-Change  Column Row Layer    Maximum-Flux-Residual          L2-NORM 
          0                 1           2             4    7     1       0.2436177886E-02       4    7    1         0.1283249644E+00      0.3739431016E+00
          0                 2           2             4    7     1      -0.2414032358E-03       4    7    1        -0.1283250654E-01      0.3739431351E-01
          0                 3           1             4    7     1       0.2152896225E-04       4    7    1         0.1154925636E-02      0.3365504421E-02

    ------------------------------------------------
       NWT REQUIRED            3 OUTER ITERATIONS 
       AND A TOTAL OF          5 INNER ITERATIONS.
    ------------------------------------------------

 NO OUTPUT CONTROL FOR STRESS PERIOD   14   TIME STEP   16
 
 SOLVING FOR HEAD 
                                                   Max.-Head-Change                         Max.-Flux-Residual
  Residual-Control   Outer-Iter.   Inner-Iter.     Column Row Layer    Maximum-Head-Change  Column Row Layer    Maximum-Flux-Residual          L2-NORM 
          0                 1           2             4    7     1       0.2404946176E-02       4    7    1         0.1266769456E+00      0.3705985828E+00
          0                 2           2             4    7     1      -0.2383084525E-03       4    7    1        -0.1266770435E-01      0.3705986069E-01
          0                 3           1             4    7     1       0.2125296130E-04       4    7    1         0.1140093430E-02      0.3335392830E-02

    ------------------------------------------------
       NWT REQUIRED            3 OUTER ITERATIONS 
       AND A TOTAL OF          5 INNER ITERATIONS.
    ------------------------------------------------

 NO OUTPUT CONTROL FOR STRESS PERIOD   14   TIME STEP   17
 
 SOLVING FOR HEAD 
                                                   Max.-Head-Change                         Max.-Flux-Residual
  Residual-Control   Outer-Iter.   Inner-Iter.     Column Row Layer    Maximum-Head-Change  Column Row Layer    Maximum-Flux-Residual          L2-NORM 
          0                 1           2             4    7     1       0.2374231177E-02       4    7    1         0.1250563764E+00      0.3673371555E+00
          0                 2           2             4    7     1      -0.2352648718E-03       4    7    1        -0.1250564717E-01      0.3673372437E-01
          0                 3           1             4    7     1       0.2098152703E-04       4    7    1         0.1125508293E-02      0.3306034485E-02

    ------------------------------------------------
       NWT REQUIRED            3 OUTER ITERATIONS 
       AND A TOTAL OF          5 INNER ITERATIONS.
    ------------------------------------------------

 NO OUTPUT CONTROL FOR STRESS PERIOD   14   TIME STEP   18
 
 SOLVING FOR HEAD 
                                                   Max.-Head-Change                         Max.-Flux-Residual
  Residual-Control   Outer-Iter.   Inner-Iter.     Column Row Layer    Maximum-Head-Change  Column Row Layer    Maximum-Flux-Residual          L2-NORM 
          0                 1           2             4    7     1       0.2344025720E-02       4    7    1         0.1234626184E+00      0.3641392303E+00
          0                 2           2             4    7     1      -0.2322717815E-03       4    7    1        -0.1234627110E-01      0.3641393259E-01
          0                 3           1             4    7     1       0.2071459558E-04       4    7    1         0.1111164455E-02      0.3277264176E-02

    ------------------------------------------------
       NWT REQUIRED            3 OUTER ITERATIONS 
       AND A TOTAL OF          5 INNER ITERATIONS.
    ------------------------------------------------

 NO OUTPUT CONTROL FOR STRESS PERIOD   14   TIME STEP   19
 
 SOLVING FOR HEAD 
                                                   Max.-Head-Change                         Max.-Flux-Residual
  Residual-Control   Outer-Iter.   Inner-Iter.     Column Row Layer    Maximum-Head-Change  Column Row Layer    Maximum-Flux-Residual          L2-NORM 
          0                 1           2             4    7     1       0.2314058153E-02       4    7    1         0.1218804751E+00      0.3610165925E+00
          0                 2           2             4    7     1      -0.2293022640E-03       4    7    1        -0.1218805650E-01      0.3610166383E-01
          0                 3           1             4    7     1       0.2044976660E-04       4    7    1         0.1096925136E-02      0.3249155330E-02

    ------------------------------------------------
       NWT REQUIRED            3 OUTER ITERATIONS 
       AND A TOTAL OF          5 INNER ITERATIONS.
    ------------------------------------------------

 NO OUTPUT CONTROL FOR STRESS PERIOD   14   TIME STEP   20
 
 SOLVING FOR HEAD 
                                                   Max.-Head-Change                         Max.-Flux-Residual
  Residual-Control   Outer-Iter.   Inner-Iter.     Column Row Layer    Maximum-Head-Change  Column Row Layer    Maximum-Flux-Residual          L2-NORM 
          0                 1           2             4    7     1       0.2284600261E-02       4    7    1         0.1203255010E+00      0.3579535882E+00
          0                 2           2             4    7     1      -0.2263832508E-03       4    7    1        -0.1203255884E-01      0.3579535939E-01
          0                 3           1             4    7     1       0.2018944118E-04       4    7    1         0.1082930346E-02      0.3221582912E-02

    ------------------------------------------------
       NWT REQUIRED            3 OUTER ITERATIONS 
       AND A TOTAL OF          5 INNER ITERATIONS.
    ------------------------------------------------

 NO OUTPUT CONTROL FOR STRESS PERIOD   14   TIME STEP   21
 
 SOLVING FOR HEAD 
                                                   Max.-Head-Change                         Max.-Flux-Residual
  Residual-Control   Outer-Iter.   Inner-Iter.     Column Row Layer    Maximum-Head-Change  Column Row Layer    Maximum-Flux-Residual          L2-NORM 
          0                 1           2             4    7     1       0.2255651350E-02       4    7    1         0.1187969729E+00      0.3549642950E+00
          0                 2           2             4    7     1      -0.2235146727E-03       4    7    1        -0.1187970577E-01      0.3549642994E-01
          0                 3           1             4    7     1       0.1993361392E-04       4    7    1         0.1069173570E-02      0.3194675889E-02

    ------------------------------------------------
       NWT REQUIRED            3 OUTER ITERATIONS 
       AND A TOTAL OF          5 INNER ITERATIONS.
    ------------------------------------------------

 NO OUTPUT CONTROL FOR STRESS PERIOD   14   TIME STEP   22
 
 SOLVING FOR HEAD 
                                                   Max.-Head-Change                         Max.-Flux-Residual
  Residual-Control   Outer-Iter.   Inner-Iter.     Column Row Layer    Maximum-Head-Change  Column Row Layer    Maximum-Flux-Residual          L2-NORM 
          0                 1           2             4    7     1       0.2227194222E-02       4    7    1         0.1172948556E+00      0.3520286615E+00
          0                 2           2             4    7     1      -0.2206948267E-03       4    7    1        -0.1172949382E-01      0.3520287475E-01
          0                 3           1             4    7     1       0.1968213256E-04       4    7    1         0.1055654475E-02      0.3168257216E-02

    ------------------------------------------------
       NWT REQUIRED            3 OUTER ITERATIONS 
       AND A TOTAL OF          5 INNER ITERATIONS.
    ------------------------------------------------

 NO OUTPUT CONTROL FOR STRESS PERIOD   14   TIME STEP   23
 
 SOLVING FOR HEAD 
                                                   Max.-Head-Change                         Max.-Flux-Residual
  Residual-Control   Outer-Iter.   Inner-Iter.     Column Row Layer    Maximum-Head-Change  Column Row Layer    Maximum-Flux-Residual          L2-NORM 
          0                 1           2             4    7     1       0.2199226076E-02       4    7    1         0.1158182557E+00      0.3491502214E+00
          0                 2           2             4    7     1      -0.2179234338E-03       4    7    1        -0.1158183359E-01      0.3491502908E-01
          0                 3           1             4    7     1       0.1943497302E-04       4    7    1         0.1042365060E-02      0.3142358660E-02

    ------------------------------------------------
       NWT REQUIRED            3 OUTER ITERATIONS 
       AND A TOTAL OF          5 INNER ITERATIONS.
    ------------------------------------------------

 NO OUTPUT CONTROL FOR STRESS PERIOD   14   TIME STEP   24
 
 SOLVING FOR HEAD 
                                                   Max.-Head-Change                         Max.-Flux-Residual
  Residual-Control   Outer-Iter.   Inner-Iter.     Column Row Layer    Maximum-Head-Change  Column Row Layer    Maximum-Flux-Residual          L2-NORM 
          0                 1           2             4    7     1       0.2171468680E-02       4    7    1         0.1143522035E+00      0.3463301394E+00
          0                 2           2             4    7     1      -0.2151729252E-03       4    7    1        -0.1143522816E-01      0.3463301717E-01
          0                 3           1             4    7     1       0.1918967527E-04       4    7    1         0.1029170571E-02      0.3116971201E-02

    ------------------------------------------------
       NWT REQUIRED            3 OUTER ITERATIONS 
       AND A TOTAL OF          5 INNER ITERATIONS.
    ------------------------------------------------

 NO OUTPUT CONTROL FOR STRESS PERIOD   14   TIME STEP   25
 
 SOLVING FOR HEAD 
                                                   Max.-Head-Change                         Max.-Flux-Residual
  Residual-Control   Outer-Iter.   Inner-Iter.     Column Row Layer    Maximum-Head-Change  Column Row Layer    Maximum-Flux-Residual          L2-NORM 
          0                 1           2             4    7     1       0.2144197146E-02       4    7    1         0.1129119124E+00      0.3435689540E+00
          0                 2           2             4    7     1      -0.2124705607E-03       4    7    1        -0.1129119881E-01      0.3435693462E-01
          0                 3           1             4    7     1       0.1894867160E-04       4    7    1         0.1016207934E-02      0.3092125817E-02

    ------------------------------------------------
       NWT REQUIRED            3 OUTER ITERATIONS 
       AND A TOTAL OF          5 INNER ITERATIONS.
    ------------------------------------------------

 NO OUTPUT CONTROL FOR STRESS PERIOD   14   TIME STEP   26
 
 SOLVING FOR HEAD 
                                                   Max.-Head-Change                         Max.-Flux-Residual
  Residual-Control   Outer-Iter.   Inner-Iter.     Column Row Layer    Maximum-Head-Change  Column Row Layer    Maximum-Flux-Residual          L2-NORM 
          0                 1           2             4    7     1       0.2117396975E-02       4    7    1         0.1114968318E+00      0.3408450730E+00
          0                 2           2             4    7     1      -0.2098149044E-03       4    7    1        -0.1114969056E-01      0.3408450229E-01
          0                 3           1             4    7     1       0.1871183332E-04       4    7    1         0.1003472194E-02      0.3067607037E-02

    ------------------------------------------------
       NWT REQUIRED            3 OUTER ITERATIONS 
       AND A TOTAL OF          5 INNER ITERATIONS.
    ------------------------------------------------

 NO OUTPUT CONTROL FOR STRESS PERIOD   14   TIME STEP   27
 
 SOLVING FOR HEAD 
                                                   Max.-Head-Change                         Max.-Flux-Residual
  Residual-Control   Outer-Iter.   Inner-Iter.     Column Row Layer    Maximum-Head-Change  Column Row Layer    Maximum-Flux-Residual          L2-NORM 
          0                 1           2             4    7     1       0.2091068695E-02       4    7    1         0.1101062094E+00      0.3381868591E+00
          0                 2           2             4    7     1      -0.2072060083E-03       4    7    1        -0.1101062811E-01      0.3381869096E-01
          0                 3           1             4    7     1       0.1847916558E-04       4    7    1         0.9909565892E-03      0.3043683194E-02

    ------------------------------------------------
       NWT REQUIRED            3 OUTER ITERATIONS 
       AND A TOTAL OF          5 INNER ITERATIONS.
    ------------------------------------------------

 NO OUTPUT CONTROL FOR STRESS PERIOD   14   TIME STEP   28
 
 SOLVING FOR HEAD 
                                                   Max.-Head-Change                         Max.-Flux-Residual
  Residual-Control   Outer-Iter.   Inner-Iter.     Column Row Layer    Maximum-Head-Change  Column Row Layer    Maximum-Flux-Residual          L2-NORM 
          0                 1           2             4    7     1       0.2065195944E-02       4    7    1         0.1087400730E+00      0.3355725217E+00
          0                 2           2             4    7     1      -0.2046422510E-03       4    7    1        -0.1087401429E-01      0.3355725068E-01
          0                 3           1             4    7     1       0.1825052325E-04       4    7    1         0.9786613402E-03      0.3020154547E-02

    ------------------------------------------------
       NWT REQUIRED            3 OUTER ITERATIONS 
       AND A TOTAL OF          5 INNER ITERATIONS.
    ------------------------------------------------

 NO OUTPUT CONTROL FOR STRESS PERIOD   14   TIME STEP   29
 
 SOLVING FOR HEAD 
                                                   Max.-Head-Change                         Max.-Flux-Residual
  Residual-Control   Outer-Iter.   Inner-Iter.     Column Row Layer    Maximum-Head-Change  Column Row Layer    Maximum-Flux-Residual          L2-NORM 
          0                 1           2             6    8     1       0.3473442717E-02       6    8    1         0.1886830952E+00      0.3897777446E+00
          0                 2           2             6    8     1      -0.3441872713E-03       6    8    1        -0.1886835550E-01      0.3883985360E-01
          0                 3           1             6    8     1       0.3069550251E-04       6    8    1         0.1698151752E-02      0.3482705449E-02

    ------------------------------------------------
       NWT REQUIRED            3 OUTER ITERATIONS 
       AND A TOTAL OF          5 INNER ITERATIONS.
    ------------------------------------------------

 NO OUTPUT CONTROL FOR STRESS PERIOD   14   TIME STEP   30



 STREAM LISTING     PERIOD     14   STEP       30

 LAYER ROW COL. STREAM  RCH.  FLOW INTO     FLOW TO   FLOW OUT OF   OVRLND.     DIRECT     STREAM       STREAM     STREAM     STREAM   STREAMBED  STREAMBED
                SEG.NO.  NO.  STRM. RCH.    AQUIFER    STRM. RCH.    RUNOFF     PRECIP       ET          HEAD       DEPTH      WIDTH   CONDCTNC.   GRADIENT

   1    1    1     1     1    7.3575E+00  1.2279E-01   7.2347E+00  0.000E+00  0.000E+00  0.000E+00  1.09386E+03  8.110E-01  7.160E+00  3.222E-02  1.270E+00
   1    2    2     1     2    7.2347E+00  1.8849E-01   7.0463E+00  0.000E+00  0.000E+00  0.000E+00  1.08886E+03  8.053E-01  7.076E+00  4.953E-02  1.268E+00
   1    3    3     1     3    7.0463E+00  1.5918E-01   6.8871E+00  0.000E+00  0.000E+00  0.000E+00  1.08322E+03  7.991E-01  6.983E+00  4.190E-02  1.266E+00
   1    3    4     1     4    6.8871E+00  1.4547E-01   6.7416E+00  0.000E+00  0.000E+00  0.000E+00  1.07820E+03  7.949E-01  6.907E+00  3.833E-02  1.265E+00
   1    4    5     2     1    4.7416E+00  2.6814E-01   4.4735E+00  0.000E+00  0.000E+00  0.000E+00  1.07237E+03  4.377E-01  1.200E+01  7.800E-02  1.146E+00
   1    5    6     2     2    4.4735E+00  2.0545E-01   4.2680E+00  0.000E+00  0.000E+00  0.000E+00  1.06693E+03  4.241E-01  1.200E+01  6.000E-02  1.141E+00
   1    6    6     2     3    4.2680E+00  2.0472E-01   4.0633E+00  0.000E+00  0.000E+00  0.000E+00  1.06220E+03  4.121E-01  1.200E+01  6.000E-02  1.137E+00
   1    7    6     2     4    4.0633E+00  2.0399E-01   3.8593E+00  0.000E+00  0.000E+00  0.000E+00  1.05748E+03  3.998E-01  1.200E+01  6.000E-02  1.133E+00
   1    8    6     2     5    3.8593E+00  2.0324E-01   3.6561E+00  0.000E+00  0.000E+00  0.000E+00  1.05275E+03  3.873E-01  1.200E+01  6.000E-02  1.129E+00
   1    3    5     3     1    2.0000E+00  2.8252E-01   1.7175E+00  0.000E+00  0.000E+00  0.000E+00  1.07555E+03  1.909E+00  9.636E+00  7.227E-02  1.955E+00
   1    3    6     3     2    1.7175E+00  2.4905E-01   1.4684E+00  0.000E+00  0.000E+00  0.000E+00  1.07264E+03  1.727E+00  8.909E+00  6.682E-02  1.864E+00
   1    3    7     3     3    1.4684E+00  1.9718E-01   1.2712E+00  0.000E+00  0.000E+00  0.000E+00  1.06987E+03  1.555E+00  8.218E+00  5.547E-02  1.777E+00
   1    4    8     3     4    1.2712E+00  2.2567E-01   1.0456E+00  0.000E+00  0.000E+00  0.000E+00  1.06682E+03  1.364E+00  7.455E+00  6.709E-02  1.682E+00
   1    5    8     3     5    1.0456E+00  1.5790E-01   8.8768E-01  0.000E+00  0.000E+00  0.000E+00  1.06362E+03  1.164E+00  6.655E+00  4.991E-02  1.582E+00
   1    6    8     3     6    8.8768E-01  5.5980E-02   8.3170E-01  0.000E+00  0.000E+00  0.000E+00  1.06158E+03  1.036E+00  6.145E+00  1.844E-02  1.518E+00
   1    5   10     4     1    1.0000E+01  9.0919E-02   9.9091E+00  0.000E+00  0.000E+00  0.000E+00  1.07836E+03  6.368E-01  1.000E+01  2.500E-02  1.212E+00
   1    5    9     4     2    9.9091E+00  1.8158E-01   9.7275E+00  0.000E+00  0.000E+00  0.000E+00  1.07154E+03  6.315E-01  1.000E+01  5.000E-02  1.211E+00
   1    6    8     4     3    9.7275E+00  1.2689E-01   9.6006E+00  0.000E+00  0.000E+00  0.000E+00  1.06381E+03  6.256E-01  1.000E+01  3.500E-02  1.209E+00
   1    6    8     5     1    1.0432E+01  2.2686E-01   1.0205E+01  0.000E+00  0.000E+00  0.000E+00  1.05868E+03  6.790E-01  1.542E+01  6.166E-02  1.226E+00
   1    7    7     5     2    1.0205E+01  2.7894E-01   9.9265E+00  0.000E+00  0.000E+00  0.000E+00  1.05417E+03  6.732E-01  1.519E+01  7.594E-02  1.224E+00
   1    8    7     5     3    9.9265E+00  1.9221E-01   9.7343E+00  0.000E+00  0.000E+00  0.000E+00  1.04992E+03  6.676E-01  1.497E+01  5.241E-02  1.223E+00
   1    8    6     5     4    9.7343E+00  1.3577E-01   9.5985E+00  0.000E+00  0.000E+00  0.000E+00  1.04691E+03  6.637E-01  1.482E+01  3.706E-02  1.221E+00
   1    9    6     6     1    1.3255E+01  2.2980E-01   1.3025E+01  0.000E+00  0.000E+00  0.000E+00  1.04356E+03  8.301E-01  1.200E+01  6.000E-02  1.277E+00
   1   10    7     6     2    1.3025E+01  2.2928E-01   1.2796E+01  0.000E+00  0.000E+00  0.000E+00  1.03900E+03  8.214E-01  1.200E+01  6.000E-02  1.274E+00
   1   11    7     6     3    1.2796E+01  2.2875E-01   1.2567E+01  0.000E+00  0.000E+00  0.000E+00  1.03445E+03  8.126E-01  1.200E+01  6.000E-02  1.271E+00
   1   12    7     6     4    1.2567E+01  2.2823E-01   1.2339E+01  0.000E+00  0.000E+00  0.000E+00  1.02989E+03  8.038E-01  1.200E+01  6.000E-02  1.268E+00
   1   13    7     6     5    1.2339E+01 -7.4004E-02   1.2413E+01  0.000E+00  0.000E+00  0.000E+00  1.02671E+03  8.008E-01  1.200E+01  2.400E-01 -1.028E-01
   1   14    9     7     1    1.5000E+02  1.3396E+00   1.4866E+02  0.000E+00  0.000E+00  0.000E+00  1.03987E+03  2.288E+00  5.529E+01  5.593E-01  7.984E-01
   1   13    8     7     2    1.4866E+02  1.8444E+00   1.4682E+02  0.000E+00  0.000E+00  0.000E+00  1.03478E+03  2.279E+00  5.526E+01  6.148E-01  1.000E+00
   1   13    7     7     3    1.4682E+02  1.4919E+00   1.4532E+02  0.000E+00  0.000E+00  0.000E+00  1.02969E+03  2.270E+00  5.522E+01  5.584E-01  8.905E-01
   1   13    6     8     1    1.5774E+02  8.6838E-01   1.5687E+02  0.000E+00  0.000E+00  0.000E+00  1.02474E+03  2.868E+00  4.158E+01  4.237E-01  6.832E-01
   1   13    5     8     2    1.5687E+02  1.3520E-01   1.5673E+02  0.000E+00  0.000E+00  0.000E+00  1.01849E+03  2.864E+00  4.153E+01  4.232E-01  1.065E-01
   1   13    4     8     3    1.5673E+02 -2.5246E+00   1.5926E+02  0.000E+00  0.000E+00  0.000E+00  1.01225E+03  2.872E+00  4.165E+01  4.244E+00 -1.983E-01
   1   13    3     8     4    1.5926E+02 -3.6489E+00   1.6291E+02  0.000E+00  0.000E+00  0.000E+00  1.00602E+03  2.893E+00  4.195E+01  4.275E+00 -2.845E-01
   1   13    2     8     5    1.6291E+02 -2.5209E+00   1.6543E+02  0.000E+00  0.000E+00  0.000E+00  9.99789E+02  2.914E+00  4.225E+01  4.305E+00 -1.952E-01
   1   13    1     8     6    1.6543E+02 -1.9366E+00   1.6736E+02  0.000E+00  0.000E+00  0.000E+00  9.94804E+02  2.929E+00  4.246E+01  2.596E+00 -2.486E-01
   1    6    8     9     1    0.0000E+00  0.0000E+00   0.0000E+00  0.000E+00  0.000E+00  0.000E+00  1.07850E+03  0.000E+00  4.000E+00  0.000E+00  1.000E+00





UNSATURATED ZONE PACKAGE VOLUMETRIC BUDGET FOR  TIME STEP    30 STRESS PERIOD   14
  ------------------------------------------------------------------------------



     CUMULATIVE VOLUMES      L**3       RATES FOR THIS TIME STEP      L**3/T
     ------------------                 ------------------------

           IN:                                      IN:
           ---                                      ---
        INFILTRATION =    69752645.8242          INFILTRATION =       0.0000E+00

          OUT:                                     OUT:
          ----                                     ----
              UZF ET =    47544790.8312                UZF ET =           0.0129
        UZF RECHARGE =       73224.0000          UZF RECHARGE =       0.0000E+00

            IN - OUT =    22134630.9930              IN - OUT =          -0.0129

          STORAGE:                                 STORAGE:
          --------                                 --------
      STORAGE CHANGE =    22134290.0404        STORAGE CHANGE =          -0.0129

 PERCENT DISCREPANCY IS DIFFERENCE BETWEEN IN-OUT MINUS CHANGE IN STORAGE
 DIVIDED BY THE AVERAGE OF IN AND OUT TIMES 100

 PERCENT DISCREPANCY =           0.00     PERCENT DISCREPANCY =           0.00






1
  VOLUMETRIC BUDGET FOR ENTIRE MODEL AT END OF TIME STEP   30, STRESS PERIOD  14
  ------------------------------------------------------------------------------

     CUMULATIVE VOLUMES      L**3       RATES FOR THIS TIME STEP      L**3/T
     ------------------                 ------------------------

           IN:                                      IN:
           ---                                      ---
    AWU WELLS            =    69679416.0000      AWU WELLS            =           0.0000
    DIVERSION SEGMENTS   =           0.0000      DIVERSION SEGMENTS   =           0.0000
    GW IRRIGATION        =           0.0000      GW IRRIGATION        =           0.0000
    SW IRRIGATION        =           0.0000      SW IRRIGATION        =           0.0000
    EFFICIENCY FACTOR GW =           0.0000      EFFICIENCY FACTOR GW =           0.0000
    EFFICIENCY FACTOR SW =           0.0000      EFFICIENCY FACTOR SW =           0.0000

                TOTAL IN =    69679416.0000                  TOTAL IN =           0.0000

          OUT:                                     OUT:
          ----                                     ----
    AWU WELLS            =           0.0000      AWU WELLS            =           0.0000
    DIVERSION SEGMENTS   =           0.0000      DIVERSION SEGMENTS   =           0.0000
    GW IRRIGATION        =    69679416.0000      GW IRRIGATION        =           0.0000
    SW IRRIGATION        =           0.0000      SW IRRIGATION        =           0.0000
    EFFICIENCY FACTOR GW =           0.0000      EFFICIENCY FACTOR GW =           0.0000
    EFFICIENCY FACTOR SW =           0.0000      EFFICIENCY FACTOR SW =           0.0000

               TOTAL OUT =    69679416.0000                 TOTAL OUT =           0.0000

                IN - OUT =           0.0000                  IN - OUT =           0.0000

     PERCENT DISCREPANCY =           0.00         PERCENT DISCREPANCY =           0.00



1
  VOLUMETRIC BUDGET FOR ENTIRE MODEL AT END OF TIME STEP   30, STRESS PERIOD  14
  ------------------------------------------------------------------------------

     CUMULATIVE VOLUMES      L**3       RATES FOR THIS TIME STEP      L**3/T
     ------------------                 ------------------------

           IN:                                      IN:
           ---                                      ---
             STORAGE     =   123551056.0000               STORAGE     =           1.4082
       CONSTANT HEAD     =           0.0000         CONSTANT HEAD     =           0.0000
     HEAD DEP BOUNDS     =     9792018.0000       HEAD DEP BOUNDS     =           0.2860
      STREAM LEAKAGE     =   401215872.0000        STREAM LEAKAGE     =          10.6985
        UZF RECHARGE     =       73223.9531          UZF RECHARGE     =           0.0000
               GW ET     =           0.0000                 GW ET     =           0.0000
     SURFACE LEAKAGE     =           0.0000       SURFACE LEAKAGE     =           0.0000
    AWU WELLS            =           0.0000      AWU WELLS            =           0.0000

                TOTAL IN =   534632160.0000                  TOTAL IN =          12.3927

          OUT:                                     OUT:
          ----                                     ----
             STORAGE     =    67872656.0000               STORAGE     =           1.3908
       CONSTANT HEAD     =           0.0000         CONSTANT HEAD     =           0.0000
     HEAD DEP BOUNDS     =     9816373.0000       HEAD DEP BOUNDS     =           0.2869
      STREAM LEAKAGE     =   333446848.0000        STREAM LEAKAGE     =          10.7050
        UZF RECHARGE     =           0.0000          UZF RECHARGE     =           0.0000
               GW ET     =    53805988.0000                 GW ET     =       1.0009E-02
     SURFACE LEAKAGE     =           0.0000       SURFACE LEAKAGE     =           0.0000
    AWU WELLS            =    69679416.0000      AWU WELLS            =           0.0000

               TOTAL OUT =   534621280.0000                 TOTAL OUT =          12.3927

                IN - OUT =       10880.0000                  IN - OUT =       1.7166E-05

     PERCENT DISCREPANCY =           0.00         PERCENT DISCREPANCY =           0.00






         TIME SUMMARY AT END OF TIME STEP   30 IN STRESS PERIOD   14
                    SECONDS     MINUTES      HOURS       DAYS        YEARS
                    -----------------------------------------------------------
   TIME STEP LENGTH  87600.      1460.0      24.333      1.0139     2.77588E-03
 STRESS PERIOD TIME 2.62800E+06  43800.      730.00      30.417     8.32763E-02
         TOTAL TIME 3.42504E+07 5.70840E+05  9514.0      396.42      1.0853    
1
1
                            STRESS PERIOD NO.   15, LENGTH =   2628000.    
                            -----------------------------------------------

                              NUMBER OF TIME STEPS =    30

                               MULTIPLIER FOR DELT =     1.000

                            INITIAL TIME STEP SIZE =   87600.00    

 REUSING NON-PARAMETER GHB CELLS FROM LAST STRESS PERIOD

      2 GHB CELLS

 REUSING STREAM SEGMENT DATA FROM LAST STRESS PERIOD



            AREAL INFILTRATION RATE
 READING ON UNIT   19 WITH FORMAT: (10F4.0)            

            1           2           3           4           5           6           7           8           9          10
 ........................................................................................................................
   1    0.000       0.000       0.000       0.000       0.000       0.000       0.000       0.000       0.000       0.000    
   2    0.000       0.000       0.000       0.000       0.000       0.000       0.000       0.000       0.000       0.000    
   3    0.000       0.000       0.000       0.000       0.000       0.000       0.000       0.000       0.000       0.000    
   4    0.000       0.000       0.000       0.000       0.000       0.000       0.000       0.000       0.000       0.000    
   5    0.000       0.000       0.000       0.000       0.000       0.000       0.000       0.000       0.000       0.000    
   6    0.000       0.000       0.000       0.000       0.000       0.000       0.000       0.000       0.000       0.000    
   7    0.000       0.000       0.000       0.000       0.000       0.000       0.000       0.000       0.000       0.000    
   8    0.000       0.000       0.000       0.000       0.000       0.000       0.000       0.000       0.000       0.000    
   9    0.000       0.000       0.000       0.000       0.000       0.000       0.000       0.000       0.000       0.000    
  10    0.000       0.000       0.000       0.000       0.000       0.000       0.000       0.000       0.000       0.000    
  11    0.000       0.000       0.000       0.000       0.000       0.000       0.000       0.000       0.000       0.000    
  12    0.000       0.000       0.000       0.000       0.000       0.000       0.000       0.000       0.000       0.000    
  13    0.000       0.000       0.000       0.000       0.000       0.000       0.000       0.000       0.000       0.000    
  14    0.000       0.000       0.000       0.000       0.000       0.000       0.000       0.000       0.000       0.000    
  15    0.000       0.000       0.000       0.000       0.000       0.000       0.000       0.000       0.000       0.000    

                  ET RATE =  1.000000E-10

 USING ET EXTINCTION DEPTH FROM PREVIOUS STRESS PERIOD. CURRENT PERIOD IS:      15

 USING EXTINCTION WATER CONTENT FROM PREVIOUS STRESS PERIOD. CURRENT PERIOD IS:      15

 PROCESSING AWU STRESS PERIOD DATA

 READING AWU STRESS PERIOD DATA

 READING IRRIGATION WELL

 END PROCESSING AWU STRESS PERIOD DATA OPTIONS
 
 SOLVING FOR HEAD 
                                                   Max.-Head-Change                         Max.-Flux-Residual
  Residual-Control   Outer-Iter.   Inner-Iter.     Column Row Layer    Maximum-Head-Change  Column Row Layer    Maximum-Flux-Residual          L2-NORM 
          0                 1           2             6    8     1       0.3507370673E-02       6    8    1         0.1902605213E+00      0.4366549468E+00
          0                 2           2             6    8     1      -0.3475492210E-03       6    8    1        -0.1902609794E-01      0.4328853193E-01
          0                 3           1             6    8     1       0.3099532975E-04       6    8    1         0.1712348573E-02      0.3860593176E-02

    ------------------------------------------------
       NWT REQUIRED            3 OUTER ITERATIONS 
       AND A TOTAL OF          5 INNER ITERATIONS.
    ------------------------------------------------

 NO OUTPUT CONTROL FOR STRESS PERIOD   15   TIME STEP    1
 
 SOLVING FOR HEAD 
                                                   Max.-Head-Change                         Max.-Flux-Residual
  Residual-Control   Outer-Iter.   Inner-Iter.     Column Row Layer    Maximum-Head-Change  Column Row Layer    Maximum-Flux-Residual          L2-NORM 
          0                 1           2             6    8     1       0.3364520915E-02       6    8    1         0.1823741635E+00      0.4210610931E+00
          0                 2           2             6    8     1      -0.3333940452E-03       6    8    1        -0.1823745781E-01      0.4177044457E-01
          0                 3           1             6    8     1       0.2973293507E-04       6    8    1         0.1641370996E-02      0.3728415700E-02

    ------------------------------------------------
       NWT REQUIRED            3 OUTER ITERATIONS 
       AND A TOTAL OF          5 INNER ITERATIONS.
    ------------------------------------------------

 NO OUTPUT CONTROL FOR STRESS PERIOD   15   TIME STEP    2
 
 SOLVING FOR HEAD 
                                                   Max.-Head-Change                         Max.-Flux-Residual
  Residual-Control   Outer-Iter.   Inner-Iter.     Column Row Layer    Maximum-Head-Change  Column Row Layer    Maximum-Flux-Residual          L2-NORM 
          0                 1           2             6    8     1       0.3229929327E-02       6    8    1         0.1749473242E+00      0.4069587631E+00
          0                 2           2             6    8     1      -0.3200571853E-03       6    8    1        -0.1749476996E-01      0.4039851041E-01
          0                 3           1             6    8     1       0.2854352053E-04       6    8    1         0.1574529129E-02      0.3608087759E-02

    ------------------------------------------------
       NWT REQUIRED            3 OUTER ITERATIONS 
       AND A TOTAL OF          5 INNER ITERATIONS.
    ------------------------------------------------

 NO OUTPUT CONTROL FOR STRESS PERIOD   15   TIME STEP    3
 
 SOLVING FOR HEAD 
                                                   Max.-Head-Change                         Max.-Flux-Residual
  Residual-Control   Outer-Iter.   Inner-Iter.     Column Row Layer    Maximum-Head-Change  Column Row Layer    Maximum-Flux-Residual          L2-NORM 
          0                 1           2             6    8     1       0.3103031945E-02       6    8    1         0.1679489722E+00      0.3941633003E+00
          0                 2           2             6    8     1      -0.3074827574E-03       6    8    1        -0.1679493129E-01      0.3915194942E-01
          0                 3           1             6    8     1       0.2742210049E-04       6    8    1         0.1511543653E-02      0.3498420420E-02

    ------------------------------------------------
       NWT REQUIRED            3 OUTER ITERATIONS 
       AND A TOTAL OF          5 INNER ITERATIONS.
    ------------------------------------------------

 NO OUTPUT CONTROL FOR STRESS PERIOD   15   TIME STEP    4
 
 SOLVING FOR HEAD 
                                                   Max.-Head-Change                         Max.-Flux-Residual
  Residual-Control   Outer-Iter.   Inner-Iter.     Column Row Layer    Maximum-Head-Change  Column Row Layer    Maximum-Flux-Residual          L2-NORM 
          0                 1           2             6    8     1       0.2983313528E-02       6    8    1         0.1613498452E+00      0.3825461949E+00
          0                 2           2             6    8     1      -0.2956197049E-03       6    8    1        -0.1613501547E-01      0.3802112935E-01
          0                 3           1             6    8     1       0.2636412351E-04       6    8    1         0.1452151261E-02      0.3399802575E-02

    ------------------------------------------------
       NWT REQUIRED            3 OUTER ITERATIONS 
       AND A TOTAL OF          5 INNER ITERATIONS.
    ------------------------------------------------

 NO OUTPUT CONTROL FOR STRESS PERIOD   15   TIME STEP    5
 
 SOLVING FOR HEAD 
                                                   Max.-Head-Change                         Max.-Flux-Residual
  Residual-Control   Outer-Iter.   Inner-Iter.     Column Row Layer    Maximum-Head-Change  Column Row Layer    Maximum-Flux-Residual          L2-NORM 
          0                 1           2             6    8     1       0.2870296811E-02       6    8    1         0.1551232097E+00      0.3719740800E+00
          0                 2           2             6    8     1      -0.2844207347E-03       6    8    1        -0.1551234911E-01      0.3698559703E-01
          0                 3           1             6    8     1       0.2536537088E-04       6    8    1         0.1396111311E-02      0.3309971453E-02

    ------------------------------------------------
       NWT REQUIRED            3 OUTER ITERATIONS 
       AND A TOTAL OF          5 INNER ITERATIONS.
    ------------------------------------------------

 NO OUTPUT CONTROL FOR STRESS PERIOD   15   TIME STEP    6
 
 SOLVING FOR HEAD 
                                                   Max.-Head-Change                         Max.-Flux-Residual
  Residual-Control   Outer-Iter.   Inner-Iter.     Column Row Layer    Maximum-Head-Change  Column Row Layer    Maximum-Flux-Residual          L2-NORM 
          0                 1           2             6    8     1       0.2763812611E-02       6    8    1         0.1492591201E+00      0.3623576487E+00
          0                 2           2             6    8     1      -0.2738690819E-03       6    8    1        -0.1492593765E-01      0.3605227233E-01
          0                 3           1             6    8     1       0.2442434775E-04       6    8    1         0.1343334298E-02      0.3227458378E-02

    ------------------------------------------------
       NWT REQUIRED            3 OUTER ITERATIONS 
       AND A TOTAL OF          5 INNER ITERATIONS.
    ------------------------------------------------

 NO OUTPUT CONTROL FOR STRESS PERIOD   15   TIME STEP    7
 
 SOLVING FOR HEAD 
                                                   Max.-Head-Change                         Max.-Flux-Residual
  Residual-Control   Outer-Iter.   Inner-Iter.     Column Row Layer    Maximum-Head-Change  Column Row Layer    Maximum-Flux-Residual          L2-NORM 
          0                 1           2             6    8     1       0.2662882475E-02       6    8    1         0.1437043446E+00      0.3535502373E+00
          0                 2           2             6    8     1      -0.2638677902E-03       6    8    1        -0.1437045783E-01      0.3519303981E-01
          0                 3           1             6    8     1       0.2353240724E-04       6    8    1         0.1293341150E-02      0.3152103037E-02

    ------------------------------------------------
       NWT REQUIRED            3 OUTER ITERATIONS 
       AND A TOTAL OF          5 INNER ITERATIONS.
    ------------------------------------------------

 NO OUTPUT CONTROL FOR STRESS PERIOD   15   TIME STEP    8
 
 SOLVING FOR HEAD 
                                                   Max.-Head-Change                         Max.-Flux-Residual
  Residual-Control   Outer-Iter.   Inner-Iter.     Column Row Layer    Maximum-Head-Change  Column Row Layer    Maximum-Flux-Residual          L2-NORM 
          0                 1           2             6    8     1       0.2567688946E-02       6    8    1         0.1384673860E+00      0.3454945563E+00
          0                 2           2             6    8     1      -0.2544349468E-03       6    8    1        -0.1384675994E-01      0.3440591922E-01
          0                 3           1             6    8     1       0.2269116189E-04       6    8    1         0.1246208329E-02      0.3083272238E-02

    ------------------------------------------------
       NWT REQUIRED            3 OUTER ITERATIONS 
       AND A TOTAL OF          5 INNER ITERATIONS.
    ------------------------------------------------

 NO OUTPUT CONTROL FOR STRESS PERIOD   15   TIME STEP    9
 
 SOLVING FOR HEAD 
                                                   Max.-Head-Change                         Max.-Flux-Residual
  Residual-Control   Outer-Iter.   Inner-Iter.     Column Row Layer    Maximum-Head-Change  Column Row Layer    Maximum-Flux-Residual          L2-NORM 
          0                 1           2             6    8     1       0.2477582367E-02       6    8    1         0.1335132626E+00      0.3380927144E+00
          0                 2           2             6    8     1      -0.2455061773E-03       6    8    1        -0.1335134577E-01      0.3368203638E-01
          0                 3           1             6    8     1       0.2189487161E-04       6    8    1         0.1201621070E-02      0.3019344662E-02

    ------------------------------------------------
       NWT REQUIRED            3 OUTER ITERATIONS 
       AND A TOTAL OF          5 INNER ITERATIONS.
    ------------------------------------------------

 NO OUTPUT CONTROL FOR STRESS PERIOD   15   TIME STEP   10
 
 SOLVING FOR HEAD 
                                                   Max.-Head-Change                         Max.-Flux-Residual
  Residual-Control   Outer-Iter.   Inner-Iter.     Column Row Layer    Maximum-Head-Change  Column Row Layer    Maximum-Flux-Residual          L2-NORM 
          0                 1           2             6    8     1       0.2392510625E-02       6    8    1         0.1288379018E+00      0.3312861211E+00
          0                 2           2             6    8     1      -0.2370763164E-03       6    8    1        -0.1288380802E-01      0.3301767786E-01
          0                 3           1             6    8     1       0.2114307493E-04       6    8    1         0.1159542678E-02      0.2961423284E-02

    ------------------------------------------------
       NWT REQUIRED            3 OUTER ITERATIONS 
       AND A TOTAL OF          5 INNER ITERATIONS.
    ------------------------------------------------

 NO OUTPUT CONTROL FOR STRESS PERIOD   15   TIME STEP   11
 
 SOLVING FOR HEAD 
                                                   Max.-Head-Change                         Max.-Flux-Residual
  Residual-Control   Outer-Iter.   Inner-Iter.     Column Row Layer    Maximum-Head-Change  Column Row Layer    Maximum-Flux-Residual          L2-NORM 
          0                 1           2             6    8     1       0.2311609713E-02       6    8    1         0.1243941453E+00      0.3249926684E+00
          0                 2           2             6    8     1      -0.2290597495E-03       6    8    1        -0.1243943088E-01      0.3240090657E-01
          0                 3           1             6    8     1       0.2042813683E-04       6    8    1         0.1119548737E-02      0.2906722861E-02

    ------------------------------------------------
       NWT REQUIRED            3 OUTER ITERATIONS 
       AND A TOTAL OF          5 INNER ITERATIONS.
    ------------------------------------------------

 NO OUTPUT CONTROL FOR STRESS PERIOD   15   TIME STEP   12
 
 SOLVING FOR HEAD 
                                                   Max.-Head-Change                         Max.-Flux-Residual
  Residual-Control   Outer-Iter.   Inner-Iter.     Column Row Layer    Maximum-Head-Change  Column Row Layer    Maximum-Flux-Residual          L2-NORM 
          0                 1           2             6    8     1       0.2235413230E-02       6    8    1         0.1202112542E+00      0.3191667982E+00
          0                 2           2             6    8     1      -0.2215093512E-03       6    8    1        -0.1202114042E-01      0.3183793851E-01
          0                 3           1             6    8     1       0.1975477306E-04       6    8    1         0.1081902615E-02      0.2865615404E-02

    ------------------------------------------------
       NWT REQUIRED            3 OUTER ITERATIONS 
       AND A TOTAL OF          5 INNER ITERATIONS.
    ------------------------------------------------

 NO OUTPUT CONTROL FOR STRESS PERIOD   15   TIME STEP   13
 
 SOLVING FOR HEAD 
                                                   Max.-Head-Change                         Max.-Flux-Residual
  Residual-Control   Outer-Iter.   Inner-Iter.     Column Row Layer    Maximum-Head-Change  Column Row Layer    Maximum-Flux-Residual          L2-NORM 
          0                 1           2             6    8     1       0.2162818781E-02       6    8    1         0.1162280047E+00      0.3137479178E+00
          0                 2           2             6    8     1      -0.2143158832E-03       6    8    1        -0.1162281424E-01      0.3129797473E-01
          0                 3           1             6    8     1       0.1911324144E-04       6    8    1         0.1046053266E-02      0.2809623084E-02

    ------------------------------------------------
       NWT REQUIRED            3 OUTER ITERATIONS 
       AND A TOTAL OF          5 INNER ITERATIONS.
    ------------------------------------------------

 NO OUTPUT CONTROL FOR STRESS PERIOD   15   TIME STEP   14
 
 SOLVING FOR HEAD 
                                                   Max.-Head-Change                         Max.-Flux-Residual
  Residual-Control   Outer-Iter.   Inner-Iter.     Column Row Layer    Maximum-Head-Change  Column Row Layer    Maximum-Flux-Residual          L2-NORM 
          0                 1           2             6    8     1       0.2094139746E-02       6    8    1         0.1124612898E+00      0.3087137741E+00
          0                 2           2             6    8     1      -0.2075103991E-03       6    8    1        -0.1124614164E-01      0.3080419533E-01
          0                 3           1             6    8     1       0.1850631122E-04       6    8    1         0.1012152756E-02      0.2766087745E-02

    ------------------------------------------------
       NWT REQUIRED            3 OUTER ITERATIONS 
       AND A TOTAL OF          5 INNER ITERATIONS.
    ------------------------------------------------

 NO OUTPUT CONTROL FOR STRESS PERIOD   15   TIME STEP   15
 
 SOLVING FOR HEAD 
                                                   Max.-Head-Change                         Max.-Flux-Residual
  Residual-Control   Outer-Iter.   Inner-Iter.     Column Row Layer    Maximum-Head-Change  Column Row Layer    Maximum-Flux-Residual          L2-NORM 
          0                 1           2             6    8     1       0.2029127841E-02       6    8    1         0.1088977332E+00      0.3040051162E+00
          0                 2           2             6    8     1      -0.2010682958E-03       6    8    1        -0.1088978500E-01      0.3034055344E-01
          0                 3           1             6    8     1       0.1793178759E-04       6    8    1         0.9800806524E-03      0.2725550981E-02

    ------------------------------------------------
       NWT REQUIRED            3 OUTER ITERATIONS 
       AND A TOTAL OF          5 INNER ITERATIONS.
    ------------------------------------------------

 NO OUTPUT CONTROL FOR STRESS PERIOD   15   TIME STEP   16
 
 SOLVING FOR HEAD 
                                                   Max.-Head-Change                         Max.-Flux-Residual
  Residual-Control   Outer-Iter.   Inner-Iter.     Column Row Layer    Maximum-Head-Change  Column Row Layer    Maximum-Flux-Residual          L2-NORM 
          0                 1           2             6    8     1       0.1967285820E-02       6    8    1         0.1055096330E+00      0.2995900065E+00
          0                 2           2             6    8     1      -0.1949403005E-03       6    8    1        -0.1055097406E-01      0.2990590532E-01
          0                 3           1             6    8     1       0.1738527749E-04       6    8    1         0.9495876784E-03      0.2686662608E-02

    ------------------------------------------------
       NWT REQUIRED            3 OUTER ITERATIONS 
       AND A TOTAL OF          5 INNER ITERATIONS.
    ------------------------------------------------

 NO OUTPUT CONTROL FOR STRESS PERIOD   15   TIME STEP   17
 
 SOLVING FOR HEAD 
                                                   Max.-Head-Change                         Max.-Flux-Residual
  Residual-Control   Outer-Iter.   Inner-Iter.     Column Row Layer    Maximum-Head-Change  Column Row Layer    Maximum-Flux-Residual          L2-NORM 
          0                 1           2             6    8     1       0.1908686618E-02       6    8    1         0.1023008265E+00      0.2954394156E+00
          0                 2           2             6    8     1      -0.1891336401E-03       6    8    1        -0.1023009259E-01      0.2949688905E-01
          0                 3           1             6    8     1       0.1686742462E-04       6    8    1         0.9207083540E-03      0.2650297098E-02

    ------------------------------------------------
       NWT REQUIRED            3 OUTER ITERATIONS 
       AND A TOTAL OF          5 INNER ITERATIONS.
    ------------------------------------------------

 NO OUTPUT CONTROL FOR STRESS PERIOD   15   TIME STEP   18
 
 SOLVING FOR HEAD 
                                                   Max.-Head-Change                         Max.-Flux-Residual
  Residual-Control   Outer-Iter.   Inner-Iter.     Column Row Layer    Maximum-Head-Change  Column Row Layer    Maximum-Flux-Residual          L2-NORM 
          0                 1           2             6    8     1       0.1852864024E-02       6    8    1         0.9924546058E-01      0.2915337375E+00
          0                 2           2             6    8     1      -0.1836021166E-03       6    8    1        -0.9924555201E-02      0.2911171888E-01
          0                 3           1             6    8     1       0.1637410876E-04       6    8    1         0.8932099740E-03      0.2616074088E-02

    ------------------------------------------------
       NWT REQUIRED            3 OUTER ITERATIONS 
       AND A TOTAL OF          5 INNER ITERATIONS.
    ------------------------------------------------

 NO OUTPUT CONTROL FOR STRESS PERIOD   15   TIME STEP   19
 
 SOLVING FOR HEAD 
                                                   Max.-Head-Change                         Max.-Flux-Residual
  Residual-Control   Outer-Iter.   Inner-Iter.     Column Row Layer    Maximum-Head-Change  Column Row Layer    Maximum-Flux-Residual          L2-NORM 
          0                 1           2             6    8     1       0.1799911209E-02       6    8    1         0.9634898284E-01      0.2878456416E+00
          0                 2           2             6    8     1      -0.1783549646E-03       6    8    1        -0.9634906755E-02      0.2874788256E-01
          0                 3           1             6    8     1       0.1590615485E-04       6    8    1         0.8671416476E-03      0.2584002136E-02

    ------------------------------------------------
       NWT REQUIRED            3 OUTER ITERATIONS 
       AND A TOTAL OF          5 INNER ITERATIONS.
    ------------------------------------------------

 NO OUTPUT CONTROL FOR STRESS PERIOD   15   TIME STEP   20
 
 SOLVING FOR HEAD 
                                                   Max.-Head-Change                         Max.-Flux-Residual
  Residual-Control   Outer-Iter.   Inner-Iter.     Column Row Layer    Maximum-Head-Change  Column Row Layer    Maximum-Flux-Residual          L2-NORM 
          0                 1           2             6    8     1       0.1749387440E-02       6    8    1         0.9358658954E-01      0.2843353585E+00
          0                 2           2             6    8     1      -0.1733485089E-03       6    8    1        -0.9358666792E-02      0.2840086235E-01
          0                 3           1             6    8     1       0.1545966666E-04       6    8    1         0.8422800488E-03      0.2553141362E-02

    ------------------------------------------------
       NWT REQUIRED            3 OUTER ITERATIONS 
       AND A TOTAL OF          5 INNER ITERATIONS.
    ------------------------------------------------

 NO OUTPUT CONTROL FOR STRESS PERIOD   15   TIME STEP   21
 
 SOLVING FOR HEAD 
                                                   Max.-Head-Change                         Max.-Flux-Residual
  Residual-Control   Outer-Iter.   Inner-Iter.     Column Row Layer    Maximum-Head-Change  Column Row Layer    Maximum-Flux-Residual          L2-NORM 
          0                 1           2             6    8     1       0.1701415291E-02       6    8    1         0.9096505074E-01      0.2810083382E+00
          0                 2           2             6    8     1      -0.1685948969E-03       6    8    1        -0.9096512350E-02      0.2807194270E-01
          0                 3           1             6    8     1       0.1503572697E-04       6    8    1         0.8186861480E-03      0.2523580074E-02

    ------------------------------------------------
       NWT REQUIRED            3 OUTER ITERATIONS 
       AND A TOTAL OF          5 INNER ITERATIONS.
    ------------------------------------------------

 NO OUTPUT CONTROL FOR STRESS PERIOD   15   TIME STEP   22
 
 SOLVING FOR HEAD 
                                                   Max.-Head-Change                         Max.-Flux-Residual
  Residual-Control   Outer-Iter.   Inner-Iter.     Column Row Layer    Maximum-Head-Change  Column Row Layer    Maximum-Flux-Residual          L2-NORM 
          0                 1           2             6    8     1       0.1655840453E-02       6    8    1         0.8847590752E-01      0.2778502166E+00
          0                 2           2             6    8     1      -0.1640788372E-03       6    8    1        -0.8847597520E-02      0.2775926890E-01
          0                 3           1             6    8     1       0.1463297279E-04       6    8    1         0.7962837990E-03      0.2496056579E-02

    ------------------------------------------------
       NWT REQUIRED            3 OUTER ITERATIONS 
       AND A TOTAL OF          5 INNER ITERATIONS.
    ------------------------------------------------

 NO OUTPUT CONTROL FOR STRESS PERIOD   15   TIME STEP   23
 
 SOLVING FOR HEAD 
                                                   Max.-Head-Change                         Max.-Flux-Residual
  Residual-Control   Outer-Iter.   Inner-Iter.     Column Row Layer    Maximum-Head-Change  Column Row Layer    Maximum-Flux-Residual          L2-NORM 
          0                 1           2             4    7     1       0.1621383668E-02       6    8    1         0.8609633397E-01      0.2748210619E+00
          0                 2           2             4    7     1      -0.1606644344E-03       6    8    1        -0.8609639654E-02      0.2745948854E-01
          0                 3           1             4    7     1       0.1432846811E-04       6    8    1         0.7748676162E-03      0.2469525051E-02

    ------------------------------------------------
       NWT REQUIRED            3 OUTER ITERATIONS 
       AND A TOTAL OF          5 INNER ITERATIONS.
    ------------------------------------------------

 NO OUTPUT CONTROL FOR STRESS PERIOD   15   TIME STEP   24
 
 SOLVING FOR HEAD 
                                                   Max.-Head-Change                         Max.-Flux-Residual
  Residual-Control   Outer-Iter.   Inner-Iter.     Column Row Layer    Maximum-Head-Change  Column Row Layer    Maximum-Flux-Residual          L2-NORM 
          0                 1           2             4    7     1       0.1608586768E-02       4    7    1         0.8430971814E-01      0.2719271057E+00
          0                 2           2             4    7     1      -0.1593963765E-03       4    7    1        -0.8430975081E-02      0.2717246621E-01
          0                 3           1             4    7     1       0.1421537979E-04       4    7    1         0.7587878181E-03      0.2443543860E-02

    ------------------------------------------------
       NWT REQUIRED            3 OUTER ITERATIONS 
       AND A TOTAL OF          5 INNER ITERATIONS.
    ------------------------------------------------

 NO OUTPUT CONTROL FOR STRESS PERIOD   15   TIME STEP   25
 
 SOLVING FOR HEAD 
                                                   Max.-Head-Change                         Max.-Flux-Residual
  Residual-Control   Outer-Iter.   Inner-Iter.     Column Row Layer    Maximum-Head-Change  Column Row Layer    Maximum-Flux-Residual          L2-NORM 
          0                 1           2             4    7     1       0.1596033187E-02       4    7    1         0.8364570679E-01      0.2691462817E+00
          0                 2           2             4    7     1      -0.1581524298E-03       4    7    1        -0.8364573881E-02      0.2689674352E-01
          0                 3           1             4    7     1       0.1410444133E-04       4    7    1         0.7528117064E-03      0.2419247200E-02

    ------------------------------------------------
       NWT REQUIRED            3 OUTER ITERATIONS 
       AND A TOTAL OF          5 INNER ITERATIONS.
    ------------------------------------------------

 NO OUTPUT CONTROL FOR STRESS PERIOD   15   TIME STEP   26
 
 SOLVING FOR HEAD 
                                                   Max.-Head-Change                         Max.-Flux-Residual
  Residual-Control   Outer-Iter.   Inner-Iter.     Column Row Layer    Maximum-Head-Change  Column Row Layer    Maximum-Flux-Residual          L2-NORM 
          0                 1           2             4    7     1       0.1583717645E-02       4    7    1         0.8299432042E-01      0.2664840067E+00
          0                 2           2             4    7     1      -0.1569320709E-03       4    7    1        -0.8299435189E-02      0.2663237338E-01
          0                 3           1             4    7     1       0.1399560705E-04       4    7    1         0.7469492391E-03      0.2395477846E-02

    ------------------------------------------------
       NWT REQUIRED            3 OUTER ITERATIONS 
       AND A TOTAL OF          5 INNER ITERATIONS.
    ------------------------------------------------

 NO OUTPUT CONTROL FOR STRESS PERIOD   15   TIME STEP   27
 
 SOLVING FOR HEAD 
                                                   Max.-Head-Change                         Max.-Flux-Residual
  Residual-Control   Outer-Iter.   Inner-Iter.     Column Row Layer    Maximum-Head-Change  Column Row Layer    Maximum-Flux-Residual          L2-NORM 
          0                 1           2             4    7     1       0.1571617880E-02       4    7    1         0.8235528545E-01      0.2639174634E+00
          0                 2           2             4    7     1      -0.1557330928E-03       4    7    1        -0.8235531607E-02      0.2637742159E-01
          0                 3           1             4    7     1       0.1388867853E-04       4    7    1         0.7411979029E-03      0.2372737335E-02

    ------------------------------------------------
       NWT REQUIRED            3 OUTER ITERATIONS 
       AND A TOTAL OF          5 INNER ITERATIONS.
    ------------------------------------------------

 NO OUTPUT CONTROL FOR STRESS PERIOD   15   TIME STEP   28
 
 SOLVING FOR HEAD 
                                                   Max.-Head-Change                         Max.-Flux-Residual
  Residual-Control   Outer-Iter.   Inner-Iter.     Column Row Layer    Maximum-Head-Change  Column Row Layer    Maximum-Flux-Residual          L2-NORM 
          0                 1           2             4    7     1       0.1559457622E-02       4    7    1         0.8171261909E-01      0.2614327345E+00
          0                 2           2             4    7     1      -0.1545281211E-03       4    7    1        -0.8171264916E-02      0.2613041298E-01
          0                 3           1             4    7     1       0.1378121634E-04       4    7    1         0.7354139150E-03      0.2350434075E-02

    ------------------------------------------------
       NWT REQUIRED            3 OUTER ITERATIONS 
       AND A TOTAL OF          5 INNER ITERATIONS.
    ------------------------------------------------

 NO OUTPUT CONTROL FOR STRESS PERIOD   15   TIME STEP   29
 
 SOLVING FOR HEAD 
                                                   Max.-Head-Change                         Max.-Flux-Residual
  Residual-Control   Outer-Iter.   Inner-Iter.     Column Row Layer    Maximum-Head-Change  Column Row Layer    Maximum-Flux-Residual          L2-NORM 
          0                 1           2             4   13     1       0.3677568555E-02       4   13    1         0.2105746387E+00      0.5057915115E+00
          0                 2           2             7   13     1      -0.4291052167E-03       7   13    1        -0.2332439015E-01      0.5387760003E-01
          0                 3           1             7   13     1       0.3825964932E-04       7   13    1         0.2098710025E-02      0.4781362166E-02

    ------------------------------------------------
       NWT REQUIRED            3 OUTER ITERATIONS 
       AND A TOTAL OF          5 INNER ITERATIONS.
    ------------------------------------------------

 NO OUTPUT CONTROL FOR STRESS PERIOD   15   TIME STEP   30



 STREAM LISTING     PERIOD     15   STEP       30

 LAYER ROW COL. STREAM  RCH.  FLOW INTO     FLOW TO   FLOW OUT OF   OVRLND.     DIRECT     STREAM       STREAM     STREAM     STREAM   STREAMBED  STREAMBED
                SEG.NO.  NO.  STRM. RCH.    AQUIFER    STRM. RCH.    RUNOFF     PRECIP       ET          HEAD       DEPTH      WIDTH   CONDCTNC.   GRADIENT

   1    1    1     1     1    1.9897E+01  2.2004E-01   1.9677E+01  0.000E+00  0.000E+00  0.000E+00  1.09414E+03  1.097E+00  1.194E+01  5.371E-02  1.366E+00
   1    2    2     1     2    1.9677E+01  3.3950E-01   1.9338E+01  0.000E+00  0.000E+00  0.000E+00  1.08915E+03  1.092E+00  1.185E+01  8.296E-02  1.364E+00
   1    3    3     1     3    1.9338E+01  2.8830E-01   1.9049E+01  0.000E+00  0.000E+00  0.000E+00  1.08351E+03  1.087E+00  1.176E+01  7.054E-02  1.362E+00
   1    3    4     1     4    1.9049E+01  2.6446E-01   1.8785E+01  0.000E+00  0.000E+00  0.000E+00  1.07849E+03  1.082E+00  1.167E+01  6.478E-02  1.361E+00
   1    4    5     2     1    1.6785E+01  3.0775E-01   1.6477E+01  0.000E+00  0.000E+00  0.000E+00  1.07288E+03  9.456E-01  1.200E+01  7.800E-02  1.315E+00
   1    5    6     2     2    1.6477E+01  2.3618E-01   1.6241E+01  0.000E+00  0.000E+00  0.000E+00  1.06745E+03  9.363E-01  1.200E+01  6.000E-02  1.312E+00
   1    6    6     2     3    1.6241E+01  2.3569E-01   1.6005E+01  0.000E+00  0.000E+00  0.000E+00  1.06272E+03  9.281E-01  1.200E+01  6.000E-02  1.309E+00
   1    7    6     2     4    1.6005E+01  2.3520E-01   1.5770E+01  0.000E+00  0.000E+00  0.000E+00  1.05800E+03  9.200E-01  1.200E+01  6.000E-02  1.307E+00
   1    8    6     2     5    1.5770E+01  2.3471E-01   1.5535E+01  0.000E+00  0.000E+00  0.000E+00  1.05327E+03  9.118E-01  1.200E+01  6.000E-02  1.304E+00
   1    3    5     3     1    2.0000E+00  2.8252E-01   1.7175E+00  0.000E+00  0.000E+00  0.000E+00  1.07555E+03  1.909E+00  9.636E+00  7.227E-02  1.955E+00
   1    3    6     3     2    1.7175E+00  2.4905E-01   1.4684E+00  0.000E+00  0.000E+00  0.000E+00  1.07264E+03  1.727E+00  8.909E+00  6.682E-02  1.864E+00
   1    3    7     3     3    1.4684E+00  1.9718E-01   1.2712E+00  0.000E+00  0.000E+00  0.000E+00  1.06987E+03  1.555E+00  8.218E+00  5.547E-02  1.777E+00
   1    4    8     3     4    1.2712E+00  2.2567E-01   1.0456E+00  0.000E+00  0.000E+00  0.000E+00  1.06682E+03  1.364E+00  7.455E+00  6.709E-02  1.682E+00
   1    5    8     3     5    1.0456E+00  1.5790E-01   8.8768E-01  0.000E+00  0.000E+00  0.000E+00  1.06362E+03  1.164E+00  6.655E+00  4.991E-02  1.582E+00
   1    6    8     3     6    8.8768E-01  5.5980E-02   8.3170E-01  0.000E+00  0.000E+00  0.000E+00  1.06158E+03  1.036E+00  6.145E+00  1.844E-02  1.518E+00
   1    5   10     4     1    1.0000E+01  9.0919E-02   9.9091E+00  0.000E+00  0.000E+00  0.000E+00  1.07836E+03  6.368E-01  1.000E+01  2.500E-02  1.212E+00
   1    5    9     4     2    9.9091E+00  1.8158E-01   9.7275E+00  0.000E+00  0.000E+00  0.000E+00  1.07154E+03  6.315E-01  1.000E+01  5.000E-02  1.211E+00
   1    6    8     4     3    9.7275E+00  1.2689E-01   9.6006E+00  0.000E+00  0.000E+00  0.000E+00  1.06381E+03  6.256E-01  1.000E+01  3.500E-02  1.209E+00
   1    6    8     5     1    1.0432E+01  2.2686E-01   1.0205E+01  0.000E+00  0.000E+00  0.000E+00  1.05868E+03  6.790E-01  1.542E+01  6.166E-02  1.226E+00
   1    7    7     5     2    1.0205E+01  2.7894E-01   9.9265E+00  0.000E+00  0.000E+00  0.000E+00  1.05417E+03  6.732E-01  1.519E+01  7.594E-02  1.224E+00
   1    8    7     5     3    9.9265E+00  1.9221E-01   9.7343E+00  0.000E+00  0.000E+00  0.000E+00  1.04992E+03  6.676E-01  1.497E+01  5.241E-02  1.223E+00
   1    8    6     5     4    9.7343E+00  1.3577E-01   9.5985E+00  0.000E+00  0.000E+00  0.000E+00  1.04691E+03  6.637E-01  1.482E+01  3.706E-02  1.221E+00
   1    9    6     6     1    2.5134E+01  2.5328E-01   2.4881E+01  0.000E+00  0.000E+00  0.000E+00  1.04395E+03  1.221E+00  1.200E+01  6.000E-02  1.407E+00
   1   10    7     6     2    2.4881E+01  2.5283E-01   2.4628E+01  0.000E+00  0.000E+00  0.000E+00  1.03940E+03  1.214E+00  1.200E+01  6.000E-02  1.405E+00
   1   11    7     6     3    2.4628E+01  2.5238E-01   2.4375E+01  0.000E+00  0.000E+00  0.000E+00  1.03484E+03  1.206E+00  1.200E+01  6.000E-02  1.402E+00
   1   12    7     6     4    2.4375E+01  2.5194E-01   2.4124E+01  0.000E+00  0.000E+00  0.000E+00  1.03029E+03  1.199E+00  1.200E+01  6.000E-02  1.400E+00
   1   13    7     6     5    2.4124E+01  1.6312E-03   2.4122E+01  0.000E+00  0.000E+00  0.000E+00  1.02710E+03  1.195E+00  1.200E+01  2.400E-02  2.266E-02
   1   14    9     7     1    1.5000E+02  1.3401E+00   1.4866E+02  0.000E+00  0.000E+00  0.000E+00  1.03987E+03  2.288E+00  5.529E+01  5.593E-01  7.987E-01
   1   13    8     7     2    1.4866E+02  1.8443E+00   1.4682E+02  0.000E+00  0.000E+00  0.000E+00  1.03478E+03  2.279E+00  5.526E+01  6.148E-01  1.000E+00
   1   13    7     7     3    1.4682E+02  1.4818E+00   1.4533E+02  0.000E+00  0.000E+00  0.000E+00  1.02969E+03  2.270E+00  5.522E+01  5.584E-01  8.845E-01
   1   13    6     8     1    1.6946E+02  9.2013E-01   1.6854E+02  0.000E+00  0.000E+00  0.000E+00  1.02482E+03  2.946E+00  4.271E+01  4.352E-01  7.047E-01
   1   13    5     8     2    1.6854E+02  1.6709E-01   1.6837E+02  0.000E+00  0.000E+00  0.000E+00  1.01857E+03  2.942E+00  4.266E+01  4.347E-01  1.281E-01
   1   13    4     8     3    1.6837E+02 -2.3742E+00   1.7074E+02  0.000E+00  0.000E+00  0.000E+00  1.01232E+03  2.949E+00  4.276E+01  4.358E+00 -1.816E-01
   1   13    3     8     4    1.7074E+02 -3.5273E+00   1.7427E+02  0.000E+00  0.000E+00  0.000E+00  1.00609E+03  2.968E+00  4.304E+01  4.386E+00 -2.681E-01
   1   13    2     8     5    1.7427E+02 -2.3921E+00   1.7666E+02  0.000E+00  0.000E+00  0.000E+00  9.99862E+02  2.987E+00  4.332E+01  4.414E+00 -1.806E-01
   1   13    1     8     6    1.7666E+02 -1.8561E+00   1.7852E+02  0.000E+00  0.000E+00  0.000E+00  9.94876E+02  3.001E+00  4.351E+01  2.661E+00 -2.326E-01
   1    6    8     9     1    0.0000E+00  0.0000E+00   0.0000E+00  0.000E+00  0.000E+00  0.000E+00  1.07850E+03  0.000E+00  4.000E+00  0.000E+00  1.000E+00





UNSATURATED ZONE PACKAGE VOLUMETRIC BUDGET FOR  TIME STEP    30 STRESS PERIOD   15
  ------------------------------------------------------------------------------



     CUMULATIVE VOLUMES      L**3       RATES FOR THIS TIME STEP      L**3/T
     ------------------                 ------------------------

           IN:                                      IN:
           ---                                      ---
        INFILTRATION =    69752645.8242          INFILTRATION =       0.0000E+00

          OUT:                                     OUT:
          ----                                     ----
              UZF ET =    47579119.2047                UZF ET =           0.0132
        UZF RECHARGE =       73224.0000          UZF RECHARGE =       0.0000E+00

            IN - OUT =    22100302.6196              IN - OUT =          -0.0132

          STORAGE:                                 STORAGE:
          --------                                 --------
      STORAGE CHANGE =    22099961.6669        STORAGE CHANGE =          -0.0132

 PERCENT DISCREPANCY IS DIFFERENCE BETWEEN IN-OUT MINUS CHANGE IN STORAGE
 DIVIDED BY THE AVERAGE OF IN AND OUT TIMES 100

 PERCENT DISCREPANCY =           0.00     PERCENT DISCREPANCY =           0.00






1
  VOLUMETRIC BUDGET FOR ENTIRE MODEL AT END OF TIME STEP   30, STRESS PERIOD  15
  ------------------------------------------------------------------------------

     CUMULATIVE VOLUMES      L**3       RATES FOR THIS TIME STEP      L**3/T
     ------------------                 ------------------------

           IN:                                      IN:
           ---                                      ---
    AWU WELLS            =    69679416.0000      AWU WELLS            =           0.0000
    DIVERSION SEGMENTS   =           0.0000      DIVERSION SEGMENTS   =           0.0000
    GW IRRIGATION        =           0.0000      GW IRRIGATION        =           0.0000
    SW IRRIGATION        =           0.0000      SW IRRIGATION        =           0.0000
    EFFICIENCY FACTOR GW =           0.0000      EFFICIENCY FACTOR GW =           0.0000
    EFFICIENCY FACTOR SW =           0.0000      EFFICIENCY FACTOR SW =           0.0000

                TOTAL IN =    69679416.0000                  TOTAL IN =           0.0000

          OUT:                                     OUT:
          ----                                     ----
    AWU WELLS            =           0.0000      AWU WELLS            =           0.0000
    DIVERSION SEGMENTS   =           0.0000      DIVERSION SEGMENTS   =           0.0000
    GW IRRIGATION        =    69679416.0000      GW IRRIGATION        =           0.0000
    SW IRRIGATION        =           0.0000      SW IRRIGATION        =           0.0000
    EFFICIENCY FACTOR GW =           0.0000      EFFICIENCY FACTOR GW =           0.0000
    EFFICIENCY FACTOR SW =           0.0000      EFFICIENCY FACTOR SW =           0.0000

               TOTAL OUT =    69679416.0000                 TOTAL OUT =           0.0000

                IN - OUT =           0.0000                  IN - OUT =           0.0000

     PERCENT DISCREPANCY =           0.00         PERCENT DISCREPANCY =           0.00



1
  VOLUMETRIC BUDGET FOR ENTIRE MODEL AT END OF TIME STEP   30, STRESS PERIOD  15
  ------------------------------------------------------------------------------

     CUMULATIVE VOLUMES      L**3       RATES FOR THIS TIME STEP      L**3/T
     ------------------                 ------------------------

           IN:                                      IN:
           ---                                      ---
             STORAGE     =   126373512.0000               STORAGE     =           0.8795
       CONSTANT HEAD     =           0.0000         CONSTANT HEAD     =           0.0000
     HEAD DEP BOUNDS     =    10543717.0000       HEAD DEP BOUNDS     =           0.2860
      STREAM LEAKAGE     =   430015776.0000        STREAM LEAKAGE     =          11.5287
        UZF RECHARGE     =       73223.9531          UZF RECHARGE     =           0.0000
               GW ET     =           0.0000                 GW ET     =           0.0000
     SURFACE LEAKAGE     =           0.0000       SURFACE LEAKAGE     =           0.0000
    AWU WELLS            =           0.0000      AWU WELLS            =           0.0000

                TOTAL IN =   567006208.0000                  TOTAL IN =          12.6943

          OUT:                                     OUT:
          ----                                     ----
             STORAGE     =    71375848.0000               STORAGE     =           2.2477
       CONSTANT HEAD     =           0.0000         CONSTANT HEAD     =           0.0000
     HEAD DEP BOUNDS     =    10571684.0000       HEAD DEP BOUNDS     =           0.2878
      STREAM LEAKAGE     =   361536448.0000        STREAM LEAKAGE     =          10.1497
        UZF RECHARGE     =           0.0000          UZF RECHARGE     =           0.0000
               GW ET     =    53832412.0000                 GW ET     =       1.0085E-02
     SURFACE LEAKAGE     =           0.0000       SURFACE LEAKAGE     =           0.0000
    AWU WELLS            =    69679416.0000      AWU WELLS            =           0.0000

               TOTAL OUT =   566995776.0000                 TOTAL OUT =          12.6953

                IN - OUT =       10432.0000                  IN - OUT =      -1.0881E-03

     PERCENT DISCREPANCY =           0.00         PERCENT DISCREPANCY =          -0.01






         TIME SUMMARY AT END OF TIME STEP   30 IN STRESS PERIOD   15
                    SECONDS     MINUTES      HOURS       DAYS        YEARS
                    -----------------------------------------------------------
   TIME STEP LENGTH  87600.      1460.0      24.333      1.0139     2.77588E-03
 STRESS PERIOD TIME 2.62800E+06  43800.      730.00      30.417     8.32763E-02
         TOTAL TIME 3.68784E+07 6.14640E+05  10244.      426.83      1.1686    
1
1
                            STRESS PERIOD NO.   16, LENGTH =   2628000.    
                            -----------------------------------------------

                              NUMBER OF TIME STEPS =    30

                               MULTIPLIER FOR DELT =     1.000

                            INITIAL TIME STEP SIZE =   87600.00    

 REUSING NON-PARAMETER GHB CELLS FROM LAST STRESS PERIOD

      2 GHB CELLS

 REUSING STREAM SEGMENT DATA FROM LAST STRESS PERIOD



            AREAL INFILTRATION RATE
 READING ON UNIT   19 WITH FORMAT: (10F4.0)            

            1           2           3           4           5           6           7           8           9          10
 ........................................................................................................................
   1    0.000       0.000       0.000       0.000       0.000       0.000       0.000       0.000       0.000       0.000    
   2    0.000       0.000       0.000       0.000       0.000       0.000       0.000       0.000       0.000       0.000    
   3    0.000       0.000       0.000       0.000       0.000       0.000       0.000       0.000       0.000       0.000    
   4    0.000       0.000       0.000       0.000       0.000       0.000       0.000       0.000       0.000       0.000    
   5    0.000       0.000       0.000       0.000       0.000       0.000       0.000       0.000       0.000       0.000    
   6    0.000       0.000       0.000       0.000       0.000       0.000       0.000       0.000       0.000       0.000    
   7    0.000       0.000       0.000       0.000       0.000       0.000       0.000       0.000       0.000       0.000    
   8    0.000       0.000       0.000       0.000       0.000       0.000       0.000       0.000       0.000       0.000    
   9    0.000       0.000       0.000       0.000       0.000       0.000       0.000       0.000       0.000       0.000    
  10    0.000       0.000       0.000       0.000       0.000       0.000       0.000       0.000       0.000       0.000    
  11    0.000       0.000       0.000       0.000       0.000       0.000       0.000       0.000       0.000       0.000    
  12    0.000       0.000       0.000       0.000       0.000       0.000       0.000       0.000       0.000       0.000    
  13    0.000       0.000       0.000       0.000       0.000       0.000       0.000       0.000       0.000       0.000    
  14    0.000       0.000       0.000       0.000       0.000       0.000       0.000       0.000       0.000       0.000    
  15    0.000       0.000       0.000       0.000       0.000       0.000       0.000       0.000       0.000       0.000    

                  ET RATE =  1.000000E-09

 USING ET EXTINCTION DEPTH FROM PREVIOUS STRESS PERIOD. CURRENT PERIOD IS:      16

 USING EXTINCTION WATER CONTENT FROM PREVIOUS STRESS PERIOD. CURRENT PERIOD IS:      16

 PROCESSING AWU STRESS PERIOD DATA

 READING AWU STRESS PERIOD DATA

 READING IRRIGATION WELL

 END PROCESSING AWU STRESS PERIOD DATA OPTIONS
 
 SOLVING FOR HEAD 
                                                   Max.-Head-Change                         Max.-Flux-Residual
  Residual-Control   Outer-Iter.   Inner-Iter.     Column Row Layer    Maximum-Head-Change  Column Row Layer    Maximum-Flux-Residual          L2-NORM 
          0                 1           2             2   13     1       0.3634806271E-02       2   13    1         0.2047254828E+00      0.4935371110E+00
          0                 2           2             2   13     1      -0.3452571562E-03       2   13    1        -0.1962341229E-01      0.4862057341E-01
          0                 3           1             4   13     1       0.2953614934E-04       4   13    1         0.1723886789E-02      0.4306642883E-02

    ------------------------------------------------
       NWT REQUIRED            3 OUTER ITERATIONS 
       AND A TOTAL OF          5 INNER ITERATIONS.
    ------------------------------------------------

 NO OUTPUT CONTROL FOR STRESS PERIOD   16   TIME STEP    1
 
 SOLVING FOR HEAD 
                                                   Max.-Head-Change                         Max.-Flux-Residual
  Residual-Control   Outer-Iter.   Inner-Iter.     Column Row Layer    Maximum-Head-Change  Column Row Layer    Maximum-Flux-Residual          L2-NORM 
          0                 1           2             2   13     1       0.3364593456E-02       2   13    1         0.1894820619E+00      0.4721499195E+00
          0                 2           2             2   13     1      -0.3195608187E-03       2   13    1        -0.1816050620E-01      0.4658937028E-01
          0                 3           1             2   13     1       0.2718064630E-04       4   13    1         0.1563611664E-02      0.4130767109E-02

    ------------------------------------------------
       NWT REQUIRED            3 OUTER ITERATIONS 
       AND A TOTAL OF          5 INNER ITERATIONS.
    ------------------------------------------------

 NO OUTPUT CONTROL FOR STRESS PERIOD   16   TIME STEP    2
 
 SOLVING FOR HEAD 
                                                   Max.-Head-Change                         Max.-Flux-Residual
  Residual-Control   Outer-Iter.   Inner-Iter.     Column Row Layer    Maximum-Head-Change  Column Row Layer    Maximum-Flux-Residual          L2-NORM 
          0                 1           2             2   13     1       0.3115024409E-02       2   13    1         0.1754043664E+00      0.4529085012E+00
          0                 2           2             2   13     1      -0.2960462402E-03       2   13    1        -0.1682189522E-01      0.4470521709E-01
          0                 3           1             2   13     1       0.2519354961E-04       2   13    1         0.1444539766E-02      0.3968396811E-02

    ------------------------------------------------
       NWT REQUIRED            3 OUTER ITERATIONS 
       AND A TOTAL OF          5 INNER ITERATIONS.
    ------------------------------------------------

 NO OUTPUT CONTROL FOR STRESS PERIOD   16   TIME STEP    3
 
 SOLVING FOR HEAD 
                                                   Max.-Head-Change                         Max.-Flux-Residual
  Residual-Control   Outer-Iter.   Inner-Iter.     Column Row Layer    Maximum-Head-Change  Column Row Layer    Maximum-Flux-Residual          L2-NORM 
          0                 1           2             2   13     1       0.2884219077E-02       2   13    1         0.1623862252E+00      0.4356806612E+00
          0                 2           2             2   13     1      -0.2741569313E-03       2   13    1        -0.1557592355E-01      0.4304556379E-01
          0                 3           1             2   13     1       0.2332824225E-04       2   13    1         0.1337387087E-02      0.3824712619E-02

    ------------------------------------------------
       NWT REQUIRED            3 OUTER ITERATIONS 
       AND A TOTAL OF          5 INNER ITERATIONS.
    ------------------------------------------------

 NO OUTPUT CONTROL FOR STRESS PERIOD   16   TIME STEP    4
 
 SOLVING FOR HEAD 
                                                   Max.-Head-Change                         Max.-Flux-Residual
  Residual-Control   Outer-Iter.   Inner-Iter.     Column Row Layer    Maximum-Head-Change  Column Row Layer    Maximum-Flux-Residual          L2-NORM 
          0                 1           2             2   13     1       0.2670803667E-02       2   13    1         0.1503499660E+00      0.4202121642E+00
          0                 2           2             2   13     1      -0.2539465984E-03       2   13    1        -0.1442565920E-01      0.4155619766E-01
          0                 3           1             2   13     1       0.2162914562E-04       2   13    1         0.1239811614E-02      0.3696264748E-02

    ------------------------------------------------
       NWT REQUIRED            3 OUTER ITERATIONS 
       AND A TOTAL OF          5 INNER ITERATIONS.
    ------------------------------------------------

 NO OUTPUT CONTROL FOR STRESS PERIOD   16   TIME STEP    5
 
 SOLVING FOR HEAD 
                                                   Max.-Head-Change                         Max.-Flux-Residual
  Residual-Control   Outer-Iter.   Inner-Iter.     Column Row Layer    Maximum-Head-Change  Column Row Layer    Maximum-Flux-Residual          L2-NORM 
          0                 1           2             2   13     1       0.2473496036E-02       2   13    1         0.1392231440E+00      0.4063051768E+00
          0                 2           2             2   13     1      -0.2352410261E-03       2   13    1        -0.1336112219E-01      0.4021729986E-01
          0                 3           1             2   13     1       0.2003035270E-04       2   13    1         0.1147985698E-02      0.3580357157E-02

    ------------------------------------------------
       NWT REQUIRED            3 OUTER ITERATIONS 
       AND A TOTAL OF          5 INNER ITERATIONS.
    ------------------------------------------------

 NO OUTPUT CONTROL FOR STRESS PERIOD   16   TIME STEP    6
 
 SOLVING FOR HEAD 
                                                   Max.-Head-Change                         Max.-Flux-Residual
  Residual-Control   Outer-Iter.   Inner-Iter.     Column Row Layer    Maximum-Head-Change  Column Row Layer    Maximum-Flux-Residual          L2-NORM 
          0                 1           2             2   13     1       0.2291042660E-02       2   13    1         0.1289348510E+00      0.3938068464E+00
          0                 2           2             2   13     1      -0.2179139849E-03       2   13    1        -0.1237510384E-01      0.3901366870E-01
          0                 3           1             2    2     1       0.1928985828E-04       2   13    1         0.1063921434E-02      0.3476778777E-02

    ------------------------------------------------
       NWT REQUIRED            3 OUTER ITERATIONS 
       AND A TOTAL OF          5 INNER ITERATIONS.
    ------------------------------------------------

 NO OUTPUT CONTROL FOR STRESS PERIOD   16   TIME STEP    7
 
 SOLVING FOR HEAD 
                                                   Max.-Head-Change                         Max.-Flux-Residual
  Residual-Control   Outer-Iter.   Inner-Iter.     Column Row Layer    Maximum-Head-Change  Column Row Layer    Maximum-Flux-Residual          L2-NORM 
          0                 1           2             2    2     1       0.2163723846E-02       2   13    1         0.1194210052E+00      0.3825370191E+00
          0                 2           2             2    2     1      -0.2144056719E-03       2   13    1        -0.1146301286E-01      0.3792739007E-01
          0                 3           1             2    2     1       0.1912124780E-04       2    2    1         0.1020029455E-02      0.3388033038E-02

    ------------------------------------------------
       NWT REQUIRED            3 OUTER ITERATIONS 
       AND A TOTAL OF          5 INNER ITERATIONS.
    ------------------------------------------------

 NO OUTPUT CONTROL FOR STRESS PERIOD   16   TIME STEP    8
 
 SOLVING FOR HEAD 
                                                   Max.-Head-Change                         Max.-Flux-Residual
  Residual-Control   Outer-Iter.   Inner-Iter.     Column Row Layer    Maximum-Head-Change  Column Row Layer    Maximum-Flux-Residual          L2-NORM 
          0                 1           2             2    2     1       0.2144927629E-02       2    2    1         0.1123464035E+00      0.3723754787E+00
          0                 2           2             2    2     1      -0.2125431314E-03       2    2    1        -0.1123465979E-01      0.3694999396E-01
          0                 3           1             2    2     1       0.1895514182E-04       2    2    1         0.1011119326E-02      0.3299749251E-02

    ------------------------------------------------
       NWT REQUIRED            3 OUTER ITERATIONS 
       AND A TOTAL OF          5 INNER ITERATIONS.
    ------------------------------------------------

 NO OUTPUT CONTROL FOR STRESS PERIOD   16   TIME STEP    9
 
 SOLVING FOR HEAD 
                                                   Max.-Head-Change                         Max.-Flux-Residual
  Residual-Control   Outer-Iter.   Inner-Iter.     Column Row Layer    Maximum-Head-Change  Column Row Layer    Maximum-Flux-Residual          L2-NORM 
          0                 1           2             2    2     1       0.2126410126E-02       2    2    1         0.1113710936E+00      0.3631889691E+00
          0                 2           2             2    2     1      -0.2107082089E-03       2    2    1        -0.1113712838E-01      0.3606336775E-01
          0                 3           1             2    2     1       0.1879149906E-04       2    2    1         0.1002341496E-02      0.3222074698E-02

    ------------------------------------------------
       NWT REQUIRED            3 OUTER ITERATIONS 
       AND A TOTAL OF          5 INNER ITERATIONS.
    ------------------------------------------------

 NO OUTPUT CONTROL FOR STRESS PERIOD   16   TIME STEP   10
 
 SOLVING FOR HEAD 
                                                   Max.-Head-Change                         Max.-Flux-Residual
  Residual-Control   Outer-Iter.   Inner-Iter.     Column Row Layer    Maximum-Head-Change  Column Row Layer    Maximum-Flux-Residual          L2-NORM 
          0                 1           2             2    2     1       0.2108166774E-02       2    2    1         0.1104102457E+00      0.3548636019E+00
          0                 2           2             2    2     1      -0.2089004526E-03       2    2    1        -0.1104104321E-01      0.3526028622E-01
          0                 3           1             2    2     1       0.1863027852E-04       2    2    1         0.9936938413E-03      0.3152930971E-02

    ------------------------------------------------
       NWT REQUIRED            3 OUTER ITERATIONS 
       AND A TOTAL OF          5 INNER ITERATIONS.
    ------------------------------------------------

 NO OUTPUT CONTROL FOR STRESS PERIOD   16   TIME STEP   11
 
 SOLVING FOR HEAD 
                                                   Max.-Head-Change                         Max.-Flux-Residual
  Residual-Control   Outer-Iter.   Inner-Iter.     Column Row Layer    Maximum-Head-Change  Column Row Layer    Maximum-Flux-Residual          L2-NORM 
          0                 1           2             2    2     1       0.2090193449E-02       2    2    1         0.1094636231E+00      0.3472995236E+00
          0                 2           2             2    2     1      -0.2071194536E-03       2    2    1        -0.1094638057E-01      0.3452934494E-01
          0                 3           1             2    2     1       0.1847144460E-04       2    2    1         0.9851741932E-03      0.3088340643E-02

    ------------------------------------------------
       NWT REQUIRED            3 OUTER ITERATIONS 
       AND A TOTAL OF          5 INNER ITERATIONS.
    ------------------------------------------------

 NO OUTPUT CONTROL FOR STRESS PERIOD   16   TIME STEP   12
 
 SOLVING FOR HEAD 
                                                   Max.-Head-Change                         Max.-Flux-Residual
  Residual-Control   Outer-Iter.   Inner-Iter.     Column Row Layer    Maximum-Head-Change  Column Row Layer    Maximum-Flux-Residual          L2-NORM 
          0                 1           2             2    2     1       0.2072398401E-02       2    2    1         0.1085264406E+00      0.3404104430E+00
          0                 2           2             2    2     1      -0.2053561204E-03       2    2    1        -0.1085266195E-01      0.3386362017E-01
          0                 3           1             2    2     1       0.1831418635E-04       2    2    1         0.9767395286E-03      0.3031195143E-02

    ------------------------------------------------
       NWT REQUIRED            3 OUTER ITERATIONS 
       AND A TOTAL OF          5 INNER ITERATIONS.
    ------------------------------------------------

 NO OUTPUT CONTROL FOR STRESS PERIOD   16   TIME STEP   13
 
 SOLVING FOR HEAD 
                                                   Max.-Head-Change                         Max.-Flux-Residual
  Residual-Control   Outer-Iter.   Inner-Iter.     Column Row Layer    Maximum-Head-Change  Column Row Layer    Maximum-Flux-Residual          L2-NORM 
          0                 1           2             2    2     1       0.2054952749E-02       2    2    1         0.1076076511E+00      0.3341178292E+00
          0                 2           2             2    2     1      -0.2036274095E-03       2    2    1        -0.1076078266E-01      0.3325413958E-01
          0                 3           1             2    2     1       0.1816001537E-04       2    2    1         0.9684703978E-03      0.2977637200E-02

    ------------------------------------------------
       NWT REQUIRED            3 OUTER ITERATIONS 
       AND A TOTAL OF          5 INNER ITERATIONS.
    ------------------------------------------------

 NO OUTPUT CONTROL FOR STRESS PERIOD   16   TIME STEP   14
 
 SOLVING FOR HEAD 
                                                   Max.-Head-Change                         Max.-Flux-Residual
  Residual-Control   Outer-Iter.   Inner-Iter.     Column Row Layer    Maximum-Head-Change  Column Row Layer    Maximum-Flux-Residual          L2-NORM 
          0                 1           2             2    2     1       0.2037676764E-02       2    2    1         0.1066978487E+00      0.3283485691E+00
          0                 2           2             2    2     1      -0.2019155103E-03       2    2    1        -0.1066980203E-01      0.3269606859E-01
          0                 3           1             2    2     1       0.1800734320E-04       2    2    1         0.9602821191E-03      0.2929401165E-02

    ------------------------------------------------
       NWT REQUIRED            3 OUTER ITERATIONS 
       AND A TOTAL OF          5 INNER ITERATIONS.
    ------------------------------------------------

 NO OUTPUT CONTROL FOR STRESS PERIOD   16   TIME STEP   15
 
 SOLVING FOR HEAD 
                                                   Max.-Head-Change                         Max.-Flux-Residual
  Residual-Control   Outer-Iter.   Inner-Iter.     Column Row Layer    Maximum-Head-Change  Column Row Layer    Maximum-Flux-Residual          L2-NORM 
          0                 1           2             2    2     1       0.2020654717E-02       2    2    1         0.1058014214E+00      0.3230516666E+00
          0                 2           2             2    2     1      -0.2002287751E-03       2    2    1        -0.1058015896E-01      0.3218180527E-01
          0                 3           1             2    2     1       0.1785691642E-04       2    2    1         0.9522142631E-03      0.2884476917E-02

    ------------------------------------------------
       NWT REQUIRED            3 OUTER ITERATIONS 
       AND A TOTAL OF          5 INNER ITERATIONS.
    ------------------------------------------------

 NO OUTPUT CONTROL FOR STRESS PERIOD   16   TIME STEP   16
 
 SOLVING FOR HEAD 
                                                   Max.-Head-Change                         Max.-Flux-Residual
  Residual-Control   Outer-Iter.   Inner-Iter.     Column Row Layer    Maximum-Head-Change  Column Row Layer    Maximum-Flux-Residual          L2-NORM 
          0                 1           2             2    2     1       0.2003882481E-02       2    2    1         0.1049181705E+00      0.3181694975E+00
          0                 2           2             2    2     1      -0.1985667940E-03       2    2    1        -0.1049183355E-01      0.3170812678E-01
          0                 3           1             2    2     1       0.1770869674E-04       2    2    1         0.9442649888E-03      0.2843513468E-02

    ------------------------------------------------
       NWT REQUIRED            3 OUTER ITERATIONS 
       AND A TOTAL OF          5 INNER ITERATIONS.
    ------------------------------------------------

 NO OUTPUT CONTROL FOR STRESS PERIOD   16   TIME STEP   17
 
 SOLVING FOR HEAD 
                                                   Max.-Head-Change                         Max.-Flux-Residual
  Residual-Control   Outer-Iter.   Inner-Iter.     Column Row Layer    Maximum-Head-Change  Column Row Layer    Maximum-Flux-Residual          L2-NORM 
          0                 1           2             2    2     1       0.1987356038E-02       2    2    1         0.1040478820E+00      0.3136637226E+00
          0                 2           2             2    2     1      -0.1969291683E-03       2    2    1        -0.1040480436E-01      0.3127043497E-01
          0                 3           1             2    2     1       0.1756264901E-04       2    2    1         0.9364323495E-03      0.2806117240E-02

    ------------------------------------------------
       NWT REQUIRED            3 OUTER ITERATIONS 
       AND A TOTAL OF          5 INNER ITERATIONS.
    ------------------------------------------------

 NO OUTPUT CONTROL FOR STRESS PERIOD   16   TIME STEP   18
 
 SOLVING FOR HEAD 
                                                   Max.-Head-Change                         Max.-Flux-Residual
  Residual-Control   Outer-Iter.   Inner-Iter.     Column Row Layer    Maximum-Head-Change  Column Row Layer    Maximum-Flux-Residual          L2-NORM 
          0                 1           2             2    2     1       0.1971071363E-02       2    2    1         0.1031903474E+00      0.3094700940E+00
          0                 2           2             2    2     1      -0.1953155001E-03       2    2    1        -0.1031905058E-01      0.3086158522E-01
          0                 3           1             2    2     1       0.1741873789E-04       2    2    1         0.9287145114E-03      0.2769463845E-02

    ------------------------------------------------
       NWT REQUIRED            3 OUTER ITERATIONS 
       AND A TOTAL OF          5 INNER ITERATIONS.
    ------------------------------------------------

 NO OUTPUT CONTROL FOR STRESS PERIOD   16   TIME STEP   19
 
 SOLVING FOR HEAD 
                                                   Max.-Head-Change                         Max.-Flux-Residual
  Residual-Control   Outer-Iter.   Inner-Iter.     Column Row Layer    Maximum-Head-Change  Column Row Layer    Maximum-Flux-Residual          L2-NORM 
          0                 1           2             2    2     1       0.1955024541E-02       2    2    1         0.1023453577E+00      0.3055766388E+00
          0                 2           2             2    2     1      -0.1937254010E-03       2    2    1        -0.1023455130E-01      0.3048154567E-01
          0                 3           1             2    2     1       0.1727692849E-04       2    2    1         0.9211095702E-03      0.2735925872E-02

    ------------------------------------------------
       NWT REQUIRED            3 OUTER ITERATIONS 
       AND A TOTAL OF          5 INNER ITERATIONS.
    ------------------------------------------------

 NO OUTPUT CONTROL FOR STRESS PERIOD   16   TIME STEP   20
 
 SOLVING FOR HEAD 
                                                   Max.-Head-Change                         Max.-Flux-Residual
  Residual-Control   Outer-Iter.   Inner-Iter.     Column Row Layer    Maximum-Head-Change  Column Row Layer    Maximum-Flux-Residual          L2-NORM 
          0                 1           2             2    2     1       0.1939124756E-02       2    2    1         0.1015081381E+00      0.3019295480E+00
          0                 2           2             2    2     1      -0.1921498719E-03       2    2    1        -0.1015082902E-01      0.3012539807E-01
          0                 3           1             2    2     1       0.1713641899E-04       2    2    1         0.9135745756E-03      0.2704741713E-02

    ------------------------------------------------
       NWT REQUIRED            3 OUTER ITERATIONS 
       AND A TOTAL OF          5 INNER ITERATIONS.
    ------------------------------------------------

 NO OUTPUT CONTROL FOR STRESS PERIOD   16   TIME STEP   21
 
 SOLVING FOR HEAD 
                                                   Max.-Head-Change                         Max.-Flux-Residual
  Residual-Control   Outer-Iter.   Inner-Iter.     Column Row Layer    Maximum-Head-Change  Column Row Layer    Maximum-Flux-Residual          L2-NORM 
          0                 1           2             2    2     1       0.1923543649E-02       2    2    1         0.1006876917E+00      0.2985293561E+00
          0                 2           2             2    2     1      -0.1906059214E-03       2    2    1        -0.1006878408E-01      0.2979396680E-01
          0                 3           1             2    2     1       0.1699872537E-04       2    2    1         0.9061905228E-03      0.2675539581E-02

    ------------------------------------------------
       NWT REQUIRED            3 OUTER ITERATIONS 
       AND A TOTAL OF          5 INNER ITERATIONS.
    ------------------------------------------------

 NO OUTPUT CONTROL FOR STRESS PERIOD   16   TIME STEP   22
 
 SOLVING FOR HEAD 
                                                   Max.-Head-Change                         Max.-Flux-Residual
  Residual-Control   Outer-Iter.   Inner-Iter.     Column Row Layer    Maximum-Head-Change  Column Row Layer    Maximum-Flux-Residual          L2-NORM 
          0                 1           2             2    2     1       0.1908102036E-02       2    2    1         0.9987463729E-01      0.2953200085E+00
          0                 2           2             2    2     1      -0.1890757936E-03       2    2    1        -0.9987478363E-02      0.2947996635E-01
          0                 3           1             2    2     1       0.1686226509E-04       2    2    1         0.8988730322E-03      0.2649458996E-02

    ------------------------------------------------
       NWT REQUIRED            3 OUTER ITERATIONS 
       AND A TOTAL OF          5 INNER ITERATIONS.
    ------------------------------------------------

 NO OUTPUT CONTROL FOR STRESS PERIOD   16   TIME STEP   23
 
 SOLVING FOR HEAD 
                                                   Max.-Head-Change                         Max.-Flux-Residual
  Residual-Control   Outer-Iter.   Inner-Iter.     Column Row Layer    Maximum-Head-Change  Column Row Layer    Maximum-Flux-Residual          L2-NORM 
          0                 1           2             2    2     1       0.1892884767E-02       2    2    1         0.9907339282E-01      0.2923055894E+00
          0                 2           2             2    2     1      -0.1875678959E-03       2    2    1        -0.9907353616E-02      0.2918273512E-01
          0                 3           1             2    2     1       0.1672778694E-04       2    2    1         0.8916617938E-03      0.2621863360E-02

    ------------------------------------------------
       NWT REQUIRED            3 OUTER ITERATIONS 
       AND A TOTAL OF          5 INNER ITERATIONS.
    ------------------------------------------------

 NO OUTPUT CONTROL FOR STRESS PERIOD   16   TIME STEP   24
 
 SOLVING FOR HEAD 
                                                   Max.-Head-Change                         Max.-Flux-Residual
  Residual-Control   Outer-Iter.   Inner-Iter.     Column Row Layer    Maximum-Head-Change  Column Row Layer    Maximum-Flux-Residual          L2-NORM 
          0                 1           2             4   13     1      -0.5549157824E-02       4   13    1        -0.3181499954E+00      0.6000894429E+00
          0                 2           2             7   13     1      -0.1837514673E-02       7   13    1        -0.1006083531E+00      0.1182046209E+00
          0                 3           2             7   13     1       0.1638042961E-03       7   13    1         0.9050956054E-02      0.1059465283E-01
          0                 4           1             7   13     1      -0.1300241994E-04       7   13    1        -0.7250300887E-03      0.8449351812E-03

    ------------------------------------------------
       NWT REQUIRED            4 OUTER ITERATIONS 
       AND A TOTAL OF          7 INNER ITERATIONS.
    ------------------------------------------------

 NO OUTPUT CONTROL FOR STRESS PERIOD   16   TIME STEP   25
 
 SOLVING FOR HEAD 
                                                   Max.-Head-Change                         Max.-Flux-Residual
  Residual-Control   Outer-Iter.   Inner-Iter.     Column Row Layer    Maximum-Head-Change  Column Row Layer    Maximum-Flux-Residual          L2-NORM 
          0                 1           2             4   13     1      -0.5368697940E-02       4   13    1        -0.3075918146E+00      0.5971181510E+00
          0                 2           2             4   13     1       0.5269625166E-03       4   13    1         0.3047257189E-01      0.5849288265E-01
          0                 3           1             4   13     1      -0.4649872723E-04       4   13    1        -0.2713923561E-02      0.5147098637E-02

    ------------------------------------------------
       NWT REQUIRED            3 OUTER ITERATIONS 
       AND A TOTAL OF          5 INNER ITERATIONS.
    ------------------------------------------------

 NO OUTPUT CONTROL FOR STRESS PERIOD   16   TIME STEP   26
 
 SOLVING FOR HEAD 
                                                   Max.-Head-Change                         Max.-Flux-Residual
  Residual-Control   Outer-Iter.   Inner-Iter.     Column Row Layer    Maximum-Head-Change  Column Row Layer    Maximum-Flux-Residual          L2-NORM 
          0                 1           2             4   13     1      -0.4876095043E-02       4   13    1        -0.2792336469E+00      0.5609369559E+00
          0                 2           2             4   13     1       0.4785511388E-03       4   13    1         0.2765962001E-01      0.5498123524E-01
          0                 3           1             4   13     1      -0.4222503583E-04       4   13    1        -0.2463272367E-02      0.4841836022E-02

    ------------------------------------------------
       NWT REQUIRED            3 OUTER ITERATIONS 
       AND A TOTAL OF          5 INNER ITERATIONS.
    ------------------------------------------------

 NO OUTPUT CONTROL FOR STRESS PERIOD   16   TIME STEP   27
 
 SOLVING FOR HEAD 
                                                   Max.-Head-Change                         Max.-Flux-Residual
  Residual-Control   Outer-Iter.   Inner-Iter.     Column Row Layer    Maximum-Head-Change  Column Row Layer    Maximum-Flux-Residual          L2-NORM 
          0                 1           2             2   13     1      -0.4450865775E-02       4   13    1        -0.2536117434E+00      0.5283155130E+00
          0                 2           2             4   13     1       0.4348073065E-03       4   13    1         0.2511867222E-01      0.5181921675E-01
          0                 3           1             4   13     1      -0.3836412272E-04       4   13    1        -0.2236915877E-02      0.4567253961E-02

    ------------------------------------------------
       NWT REQUIRED            3 OUTER ITERATIONS 
       AND A TOTAL OF          5 INNER ITERATIONS.
    ------------------------------------------------

 NO OUTPUT CONTROL FOR STRESS PERIOD   16   TIME STEP   28
 
 SOLVING FOR HEAD 
                                                   Max.-Head-Change                         Max.-Flux-Residual
  Residual-Control   Outer-Iter.   Inner-Iter.     Column Row Layer    Maximum-Head-Change  Column Row Layer    Maximum-Flux-Residual          L2-NORM 
          0                 1           2             2    2     1       0.3888497577E-02       2    2    1         0.2034585198E+00      0.4201663222E+00
          0                 2           2             2    2     1      -0.3853155809E-03       2    2    1        -0.2034590487E-01      0.4198774567E-01
          0                 3           1             2    2     1       0.3436342961E-04       2    2    1         0.1831131147E-02      0.3776128033E-02

    ------------------------------------------------
       NWT REQUIRED            3 OUTER ITERATIONS 
       AND A TOTAL OF          5 INNER ITERATIONS.
    ------------------------------------------------

 NO OUTPUT CONTROL FOR STRESS PERIOD   16   TIME STEP   29
 
 SOLVING FOR HEAD 
                                                   Max.-Head-Change                         Max.-Flux-Residual
  Residual-Control   Outer-Iter.   Inner-Iter.     Column Row Layer    Maximum-Head-Change  Column Row Layer    Maximum-Flux-Residual          L2-NORM 
          0                 1           2             4   13     1       0.2442356936E-01       4   13    1         0.1411189377E+01      0.2614903439E+01
          0                 2           2             7   13     1      -0.5819367771E-02       7   13    1        -0.3169559922E+00      0.3979004938E+00
          0                 3           2             7   13     1       0.5188693533E-03       7   13    1         0.2851974204E-01      0.3533153934E-01
          0                 4           1             7   13     1      -0.4118481104E-04       7   13    1        -0.2284472774E-02      0.2790112159E-02

    ------------------------------------------------
       NWT REQUIRED            4 OUTER ITERATIONS 
       AND A TOTAL OF          7 INNER ITERATIONS.
    ------------------------------------------------

 NO OUTPUT CONTROL FOR STRESS PERIOD   16   TIME STEP   30



 STREAM LISTING     PERIOD     16   STEP       30

 LAYER ROW COL. STREAM  RCH.  FLOW INTO     FLOW TO   FLOW OUT OF   OVRLND.     DIRECT     STREAM       STREAM     STREAM     STREAM   STREAMBED  STREAMBED
                SEG.NO.  NO.  STRM. RCH.    AQUIFER    STRM. RCH.    RUNOFF     PRECIP       ET          HEAD       DEPTH      WIDTH   CONDCTNC.   GRADIENT

   1    1    1     1     1    9.8000E+01  4.7086E-01   9.7529E+01  0.000E+00  0.000E+00  0.000E+00  1.09484E+03  1.792E+00  2.184E+01  9.826E-02  1.597E+00
   1    2    2     1     2    9.7529E+01  7.3062E-01   9.6799E+01  0.000E+00  0.000E+00  0.000E+00  1.08985E+03  1.790E+00  2.179E+01  1.525E-01  1.597E+00
   1    3    3     1     3    9.6799E+01  6.2447E-01   9.6174E+01  0.000E+00  0.000E+00  0.000E+00  1.08421E+03  1.787E+00  2.174E+01  1.304E-01  1.596E+00
   1    3    4     1     4    9.6174E+01  5.7618E-01   9.5598E+01  0.000E+00  0.000E+00  0.000E+00  1.07919E+03  1.785E+00  2.170E+01  1.204E-01  1.595E+00
   1    4    5     2     1    9.3598E+01  4.4167E-01   9.3156E+01  0.000E+00  0.000E+00  0.000E+00  1.07460E+03  2.662E+00  1.200E+01  7.800E-02  1.887E+00
   1    5    6     2     2    9.3156E+01  3.3935E-01   9.2817E+01  0.000E+00  0.000E+00  0.000E+00  1.06917E+03  2.656E+00  1.200E+01  6.000E-02  1.885E+00
   1    6    6     2     3    9.2817E+01  3.3900E-01   9.2478E+01  0.000E+00  0.000E+00  0.000E+00  1.06444E+03  2.650E+00  1.200E+01  6.000E-02  1.883E+00
   1    7    6     2     4    9.2478E+01  3.3865E-01   9.2139E+01  0.000E+00  0.000E+00  0.000E+00  1.05972E+03  2.644E+00  1.200E+01  6.000E-02  1.881E+00
   1    8    6     2     5    9.2139E+01  3.3830E-01   9.1801E+01  0.000E+00  0.000E+00  0.000E+00  1.05500E+03  2.638E+00  1.200E+01  6.000E-02  1.879E+00
   1    3    5     3     1    2.0000E+00  2.8252E-01   1.7175E+00  0.000E+00  0.000E+00  0.000E+00  1.07555E+03  1.909E+00  9.636E+00  7.227E-02  1.955E+00
   1    3    6     3     2    1.7175E+00  2.4905E-01   1.4684E+00  0.000E+00  0.000E+00  0.000E+00  1.07264E+03  1.727E+00  8.909E+00  6.682E-02  1.864E+00
   1    3    7     3     3    1.4684E+00  1.9718E-01   1.2712E+00  0.000E+00  0.000E+00  0.000E+00  1.06987E+03  1.555E+00  8.218E+00  5.547E-02  1.777E+00
   1    4    8     3     4    1.2712E+00  2.2567E-01   1.0456E+00  0.000E+00  0.000E+00  0.000E+00  1.06682E+03  1.364E+00  7.455E+00  6.709E-02  1.682E+00
   1    5    8     3     5    1.0456E+00  1.5790E-01   8.8768E-01  0.000E+00  0.000E+00  0.000E+00  1.06362E+03  1.164E+00  6.655E+00  4.991E-02  1.582E+00
   1    6    8     3     6    8.8768E-01  5.5980E-02   8.3170E-01  0.000E+00  0.000E+00  0.000E+00  1.06158E+03  1.036E+00  6.145E+00  1.844E-02  1.518E+00
   1    5   10     4     1    1.0000E+01  9.0919E-02   9.9091E+00  0.000E+00  0.000E+00  0.000E+00  1.07836E+03  6.368E-01  1.000E+01  2.500E-02  1.212E+00
   1    5    9     4     2    9.9091E+00  1.8158E-01   9.7275E+00  0.000E+00  0.000E+00  0.000E+00  1.07154E+03  6.315E-01  1.000E+01  5.000E-02  1.211E+00
   1    6    8     4     3    9.7275E+00  1.2689E-01   9.6006E+00  0.000E+00  0.000E+00  0.000E+00  1.06381E+03  6.256E-01  1.000E+01  3.500E-02  1.209E+00
   1    6    8     5     1    1.0432E+01  2.2686E-01   1.0205E+01  0.000E+00  0.000E+00  0.000E+00  1.05868E+03  6.790E-01  1.542E+01  6.166E-02  1.226E+00
   1    7    7     5     2    1.0205E+01  2.7894E-01   9.9265E+00  0.000E+00  0.000E+00  0.000E+00  1.05417E+03  6.732E-01  1.519E+01  7.594E-02  1.224E+00
   1    8    7     5     3    9.9265E+00  1.9221E-01   9.7343E+00  0.000E+00  0.000E+00  0.000E+00  1.04992E+03  6.676E-01  1.497E+01  5.241E-02  1.223E+00
   1    8    6     5     4    9.7343E+00  1.3577E-01   9.5985E+00  0.000E+00  0.000E+00  0.000E+00  1.04691E+03  6.637E-01  1.482E+01  3.706E-02  1.221E+00
   1    9    6     6     1    8.1399E+01  3.2858E-01   8.1071E+01  0.000E+00  0.000E+00  0.000E+00  1.04520E+03  2.476E+00  1.200E+01  6.000E-02  1.825E+00
   1   10    7     6     2    8.1071E+01  3.2822E-01   8.0743E+01  0.000E+00  0.000E+00  0.000E+00  1.04065E+03  2.470E+00  1.200E+01  6.000E-02  1.823E+00
   1   11    7     6     3    8.0743E+01  3.2786E-01   8.0415E+01  0.000E+00  0.000E+00  0.000E+00  1.03610E+03  2.464E+00  1.200E+01  6.000E-02  1.821E+00
   1   12    7     6     4    8.0415E+01  3.2750E-01   8.0087E+01  0.000E+00  0.000E+00  0.000E+00  1.03155E+03  2.458E+00  1.200E+01  6.000E-02  1.819E+00
   1   13    7     6     5    8.0087E+01  3.1444E-02   8.0056E+01  0.000E+00  0.000E+00  0.000E+00  1.02836E+03  2.455E+00  1.200E+01  2.400E-02  4.367E-01
   1   14    9     7     1    1.5000E+02  1.3405E+00   1.4866E+02  0.000E+00  0.000E+00  0.000E+00  1.03987E+03  2.288E+00  5.529E+01  5.593E-01  7.989E-01
   1   13    8     7     2    1.4866E+02  1.8425E+00   1.4682E+02  0.000E+00  0.000E+00  0.000E+00  1.03478E+03  2.279E+00  5.526E+01  6.148E-01  9.990E-01
   1   13    7     7     3    1.4682E+02  1.4719E+00   1.4535E+02  0.000E+00  0.000E+00  0.000E+00  1.02969E+03  2.270E+00  5.522E+01  5.584E-01  8.786E-01
   1   13    6     8     1    2.2540E+02  1.1748E+00   2.2423E+02  0.000E+00  0.000E+00  0.000E+00  1.02515E+03  3.278E+00  4.754E+01  4.844E-01  8.084E-01
   1   13    5     8     2    2.2423E+02  3.3854E-01   2.2389E+02  0.000E+00  0.000E+00  0.000E+00  1.01890E+03  3.274E+00  4.748E+01  4.838E-01  2.332E-01
   1   13    4     8     3    2.2389E+02 -1.2289E+00   2.2512E+02  0.000E+00  0.000E+00  0.000E+00  1.01265E+03  3.277E+00  4.751E+01  4.842E+00 -8.461E-02
   1   13    3     8     4    2.2512E+02 -2.5290E+00   2.2765E+02  0.000E+00  0.000E+00  0.000E+00  1.00641E+03  3.287E+00  4.766E+01  4.857E+00 -1.736E-01
   1   13    2     8     5    2.2765E+02 -1.3344E+00   2.2898E+02  0.000E+00  0.000E+00  0.000E+00  1.00017E+03  3.297E+00  4.781E+01  4.872E+00 -9.129E-02
   1   13    1     8     6    2.2898E+02 -1.2529E+00   2.3023E+02  0.000E+00  0.000E+00  0.000E+00  9.95179E+02  3.304E+00  4.791E+01  2.930E+00 -1.426E-01
   1    6    8     9     1    2.0000E+01  0.0000E+00   2.0000E+01  0.000E+00  0.000E+00  0.000E+00  1.07932E+03  8.168E-01  4.000E+00  0.000E+00  1.272E+00





UNSATURATED ZONE PACKAGE VOLUMETRIC BUDGET FOR  TIME STEP    30 STRESS PERIOD   16
  ------------------------------------------------------------------------------



     CUMULATIVE VOLUMES      L**3       RATES FOR THIS TIME STEP      L**3/T
     ------------------                 ------------------------

           IN:                                      IN:
           ---                                      ---
        INFILTRATION =    69752645.8242          INFILTRATION =       0.0000E+00

          OUT:                                     OUT:
          ----                                     ----
              UZF ET =    47929877.4915                UZF ET =           0.1344
        UZF RECHARGE =       73224.0000          UZF RECHARGE =       0.0000E+00

            IN - OUT =    21749544.3327              IN - OUT =          -0.1344

          STORAGE:                                 STORAGE:
          --------                                 --------
      STORAGE CHANGE =    21749203.3828        STORAGE CHANGE =          -0.1344

 PERCENT DISCREPANCY IS DIFFERENCE BETWEEN IN-OUT MINUS CHANGE IN STORAGE
 DIVIDED BY THE AVERAGE OF IN AND OUT TIMES 100

 PERCENT DISCREPANCY =           0.00     PERCENT DISCREPANCY =           0.00






1
  VOLUMETRIC BUDGET FOR ENTIRE MODEL AT END OF TIME STEP   30, STRESS PERIOD  16
  ------------------------------------------------------------------------------

     CUMULATIVE VOLUMES      L**3       RATES FOR THIS TIME STEP      L**3/T
     ------------------                 ------------------------

           IN:                                      IN:
           ---                                      ---
    AWU WELLS            =    69679416.0000      AWU WELLS            =           0.0000
    DIVERSION SEGMENTS   =           0.0000      DIVERSION SEGMENTS   =           0.0000
    GW IRRIGATION        =           0.0000      GW IRRIGATION        =           0.0000
    SW IRRIGATION        =           0.0000      SW IRRIGATION        =           0.0000
    EFFICIENCY FACTOR GW =           0.0000      EFFICIENCY FACTOR GW =           0.0000
    EFFICIENCY FACTOR SW =           0.0000      EFFICIENCY FACTOR SW =           0.0000

                TOTAL IN =    69679416.0000                  TOTAL IN =           0.0000

          OUT:                                     OUT:
          ----                                     ----
    AWU WELLS            =           0.0000      AWU WELLS            =           0.0000
    DIVERSION SEGMENTS   =           0.0000      DIVERSION SEGMENTS   =           0.0000
    GW IRRIGATION        =    69679416.0000      GW IRRIGATION        =           0.0000
    SW IRRIGATION        =           0.0000      SW IRRIGATION        =           0.0000
    EFFICIENCY FACTOR GW =           0.0000      EFFICIENCY FACTOR GW =           0.0000
    EFFICIENCY FACTOR SW =           0.0000      EFFICIENCY FACTOR SW =           0.0000

               TOTAL OUT =    69679416.0000                 TOTAL OUT =           0.0000

                IN - OUT =           0.0000                  IN - OUT =           0.0000

     PERCENT DISCREPANCY =           0.00         PERCENT DISCREPANCY =           0.00



1
  VOLUMETRIC BUDGET FOR ENTIRE MODEL AT END OF TIME STEP   30, STRESS PERIOD  16
  ------------------------------------------------------------------------------

     CUMULATIVE VOLUMES      L**3       RATES FOR THIS TIME STEP      L**3/T
     ------------------                 ------------------------

           IN:                                      IN:
           ---                                      ---
             STORAGE     =   128702168.0000               STORAGE     =           0.6320
       CONSTANT HEAD     =           0.0000         CONSTANT HEAD     =           0.0000
     HEAD DEP BOUNDS     =    11295491.0000       HEAD DEP BOUNDS     =           0.2861
      STREAM LEAKAGE     =   460596384.0000        STREAM LEAKAGE     =          14.1125
        UZF RECHARGE     =       73223.9531          UZF RECHARGE     =           0.0000
               GW ET     =           0.0000                 GW ET     =           0.0000
     SURFACE LEAKAGE     =           0.0000       SURFACE LEAKAGE     =           0.0000
    AWU WELLS            =           0.0000      AWU WELLS            =           0.0000

                TOTAL IN =   600667264.0000                  TOTAL IN =          15.0305

          OUT:                                     OUT:
          ----                                     ----
             STORAGE     =    76547632.0000               STORAGE     =           8.2937
       CONSTANT HEAD     =           0.0000         CONSTANT HEAD     =           0.0000
     HEAD DEP BOUNDS     =    11329987.0000       HEAD DEP BOUNDS     =           0.2891
      STREAM LEAKAGE     =   389002336.0000        STREAM LEAKAGE     =           6.3453
        UZF RECHARGE     =           0.0000          UZF RECHARGE     =           0.0000
               GW ET     =    54099068.0000                 GW ET     =           0.1019
     SURFACE LEAKAGE     =           0.0000       SURFACE LEAKAGE     =           0.0000
    AWU WELLS            =    69679416.0000      AWU WELLS            =           0.0000

               TOTAL OUT =   600658432.0000                 TOTAL OUT =          15.0300

                IN - OUT =        8832.0000                  IN - OUT =       5.2166E-04

     PERCENT DISCREPANCY =           0.00         PERCENT DISCREPANCY =           0.00






         TIME SUMMARY AT END OF TIME STEP   30 IN STRESS PERIOD   16
                    SECONDS     MINUTES      HOURS       DAYS        YEARS
                    -----------------------------------------------------------
   TIME STEP LENGTH  87600.      1460.0      24.333      1.0139     2.77588E-03
 STRESS PERIOD TIME 2.62800E+06  43800.      730.00      30.417     8.32763E-02
         TOTAL TIME 3.95064E+07 6.58440E+05  10974.      457.25      1.2519    
1
1
                            STRESS PERIOD NO.   17, LENGTH =   2628000.    
                            -----------------------------------------------

                              NUMBER OF TIME STEPS =    30

                               MULTIPLIER FOR DELT =     1.000

                            INITIAL TIME STEP SIZE =   87600.00    

 REUSING NON-PARAMETER GHB CELLS FROM LAST STRESS PERIOD

      2 GHB CELLS

 REUSING STREAM SEGMENT DATA FROM LAST STRESS PERIOD



            AREAL INFILTRATION RATE
 READING ON UNIT   19 WITH FORMAT: (10F4.0)            

            1           2           3           4           5           6           7           8           9          10
 ........................................................................................................................
   1    0.000       0.000       0.000       0.000       0.000       0.000       0.000       0.000       0.000       0.000    
   2    0.000       0.000       0.000       0.000       0.000       0.000       0.000       0.000       0.000       0.000    
   3    0.000       0.000       0.000       0.000       0.000       0.000       0.000       0.000       0.000       0.000    
   4    0.000       0.000       0.000       0.000       0.000       0.000       0.000       0.000       0.000       0.000    
   5    0.000       0.000       0.000       0.000       0.000       0.000       0.000       0.000       0.000       0.000    
   6    0.000       0.000       0.000       0.000       0.000       0.000       0.000       0.000       0.000       0.000    
   7    0.000       0.000       0.000       0.000       0.000       0.000       0.000       0.000       0.000       0.000    
   8    0.000       0.000       0.000       0.000       0.000       0.000       0.000       0.000       0.000       0.000    
   9    0.000       0.000       0.000       0.000       0.000       0.000       0.000       0.000       0.000       0.000    
  10    0.000       0.000       0.000       0.000       0.000       0.000       0.000       0.000       0.000       0.000    
  11    0.000       0.000       0.000       0.000       0.000       0.000       0.000       0.000       0.000       0.000    
  12    0.000       0.000       0.000       0.000       0.000       0.000       0.000       0.000       0.000       0.000    
  13    0.000       0.000       0.000       0.000       0.000       0.000       0.000       0.000       0.000       0.000    
  14    0.000       0.000       0.000       0.000       0.000       0.000       0.000       0.000       0.000       0.000    
  15    0.000       0.000       0.000       0.000       0.000       0.000       0.000       0.000       0.000       0.000    

                  ET RATE =  5.000000E-09

 USING ET EXTINCTION DEPTH FROM PREVIOUS STRESS PERIOD. CURRENT PERIOD IS:      17

 USING EXTINCTION WATER CONTENT FROM PREVIOUS STRESS PERIOD. CURRENT PERIOD IS:      17

 PROCESSING AWU STRESS PERIOD DATA

 READING AWU STRESS PERIOD DATA

 READING IRRIGATION WELL

 END PROCESSING AWU STRESS PERIOD DATA OPTIONS
 
 SOLVING FOR HEAD 
                                                   Max.-Head-Change                         Max.-Flux-Residual
  Residual-Control   Outer-Iter.   Inner-Iter.     Column Row Layer    Maximum-Head-Change  Column Row Layer    Maximum-Flux-Residual          L2-NORM 
          0                 1           2             2   13     1       0.2092736263E-01       4   13    1         0.1188591263E+01      0.2269407812E+01
          0                 2           2             4   13     1      -0.2014873323E-02       4   13    1        -0.1175584840E+00      0.2207145732E+00
          0                 3           2             4   13     1       0.1774927791E-03       4   13    1         0.1045261536E-01      0.1927150829E-01
          0                 4           1             4   13     1      -0.1389011774E-04       4   13    1        -0.8256398396E-03      0.1493055249E-02

    ------------------------------------------------
       NWT REQUIRED            4 OUTER ITERATIONS 
       AND A TOTAL OF          7 INNER ITERATIONS.
    ------------------------------------------------

 NO OUTPUT CONTROL FOR STRESS PERIOD   17   TIME STEP    1
 
 SOLVING FOR HEAD 
                                                   Max.-Head-Change                         Max.-Flux-Residual
  Residual-Control   Outer-Iter.   Inner-Iter.     Column Row Layer    Maximum-Head-Change  Column Row Layer    Maximum-Flux-Residual          L2-NORM 
          0                 1           2             2   13     1       0.2659279479E-01       4   13    1         0.1514569259E+01      0.2832837564E+01
          0                 2           2             4   13     1      -0.2561813349E-02       4   13    1        -0.1497381246E+00      0.2747337789E+00
          0                 3           2             4   13     1       0.2255740198E-03       4   13    1         0.1330799628E-01      0.2391199068E-01
          0                 4           1             4   13     1      -0.1765601959E-04       4   13    1        -0.1051388078E-02      0.1845680377E-02

    ------------------------------------------------
       NWT REQUIRED            4 OUTER ITERATIONS 
       AND A TOTAL OF          7 INNER ITERATIONS.
    ------------------------------------------------

 NO OUTPUT CONTROL FOR STRESS PERIOD   17   TIME STEP    2
 
 SOLVING FOR HEAD 
                                                   Max.-Head-Change                         Max.-Flux-Residual
  Residual-Control   Outer-Iter.   Inner-Iter.     Column Row Layer    Maximum-Head-Change  Column Row Layer    Maximum-Flux-Residual          L2-NORM 
          0                 1           2             2   13     1       0.2494733156E-01       2   13    1         0.1418350218E+01      0.2670398450E+01
          0                 2           2             4   13     1      -0.2357721023E-02       4   13    1        -0.1377488695E+00      0.2591015802E+00
          0                 3           2             4   13     1       0.2075819997E-03       4   13    1         0.1224111417E-01      0.2256214605E-01
          0                 4           1             4   13     1      -0.1623443939E-04       4   13    1        -0.9662820503E-03      0.1742575871E-02

    ------------------------------------------------
       NWT REQUIRED            4 OUTER ITERATIONS 
       AND A TOTAL OF          7 INNER ITERATIONS.
    ------------------------------------------------

 NO OUTPUT CONTROL FOR STRESS PERIOD   17   TIME STEP    3
 
 SOLVING FOR HEAD 
                                                   Max.-Head-Change                         Max.-Flux-Residual
  Residual-Control   Outer-Iter.   Inner-Iter.     Column Row Layer    Maximum-Head-Change  Column Row Layer    Maximum-Flux-Residual          L2-NORM 
          0                 1           2             2   13     1       0.2289536757E-01       2   13    1         0.1301557537E+01      0.2470606347E+01
          0                 2           2             2   13     1      -0.2158499557E-02       2   13    1        -0.1238244025E+00      0.2398906968E+00
          0                 3           2             4   13     1       0.1866833333E-03       4   13    1         0.1100152626E-01      0.2090649715E-01
          0                 4           1             4   13     1      -0.1460751665E-04       4   13    1        -0.8688828539E-03      0.1616226754E-02

    ------------------------------------------------
       NWT REQUIRED            4 OUTER ITERATIONS 
       AND A TOTAL OF          7 INNER ITERATIONS.
    ------------------------------------------------

 NO OUTPUT CONTROL FOR STRESS PERIOD   17   TIME STEP    4
 
 SOLVING FOR HEAD 
                                                   Max.-Head-Change                         Max.-Flux-Residual
  Residual-Control   Outer-Iter.   Inner-Iter.     Column Row Layer    Maximum-Head-Change  Column Row Layer    Maximum-Flux-Residual          L2-NORM 
          0                 1           2             2   13     1       0.2101306458E-01       2   13    1         0.1194423182E+01      0.2291077313E+01
          0                 2           2             2   13     1      -0.1982356881E-02       2   13    1        -0.1137066221E+00      0.2226406167E+00
          0                 3           2             4   13     1       0.1679824132E-03       4   13    1         0.9892653006E-02      0.1942127319E-01
          0                 4           1             4   13     1      -0.1314150904E-04       4   13    1        -0.7811463174E-03      0.1502840627E-02

    ------------------------------------------------
       NWT REQUIRED            4 OUTER ITERATIONS 
       AND A TOTAL OF          7 INNER ITERATIONS.
    ------------------------------------------------

 NO OUTPUT CONTROL FOR STRESS PERIOD   17   TIME STEP    5
 
 SOLVING FOR HEAD 
                                                   Max.-Head-Change                         Max.-Flux-Residual
  Residual-Control   Outer-Iter.   Inner-Iter.     Column Row Layer    Maximum-Head-Change  Column Row Layer    Maximum-Flux-Residual          L2-NORM 
          0                 1           2             2   13     1       0.1928664095E-01       2   13    1         0.1096163223E+01      0.2129850947E+01
          0                 2           2             2   13     1      -0.1820607704E-02       2   13    1        -0.1044159054E+00      0.2071594000E+00
          0                 3           2             2   13     1       0.1536959457E-03       4   13    1         0.8900888828E-02      0.1808788221E-01
          0                 4           1             4   13     1      -0.1183993430E-04       4   13    1        -0.7032719668E-03      0.1401084287E-02

    ------------------------------------------------
       NWT REQUIRED            4 OUTER ITERATIONS 
       AND A TOTAL OF          7 INNER ITERATIONS.
    ------------------------------------------------

 NO OUTPUT CONTROL FOR STRESS PERIOD   17   TIME STEP    6
 
 SOLVING FOR HEAD 
                                                   Max.-Head-Change                         Max.-Flux-Residual
  Residual-Control   Outer-Iter.   Inner-Iter.     Column Row Layer    Maximum-Head-Change  Column Row Layer    Maximum-Flux-Residual          L2-NORM 
          0                 1           2             2   13     1       0.1770333311E-01       2   13    1         0.1006051423E+01      0.1985152245E+01
          0                 2           2             2   13     1      -0.1672087169E-02       2   13    1        -0.9588534173E-01      0.1932736423E+00
          0                 3           2             2   13     1       0.1412574734E-03       2   13    1         0.8173505258E-02      0.1689553346E-01
          0                 4           1             4   13     1      -0.1067377127E-04       4   13    1        -0.6335166436E-03      0.1310969913E-02

    ------------------------------------------------
       NWT REQUIRED            4 OUTER ITERATIONS 
       AND A TOTAL OF          7 INNER ITERATIONS.
    ------------------------------------------------

 NO OUTPUT CONTROL FOR STRESS PERIOD   17   TIME STEP    7
 
 SOLVING FOR HEAD 
                                                   Max.-Head-Change                         Max.-Flux-Residual
  Residual-Control   Outer-Iter.   Inner-Iter.     Column Row Layer    Maximum-Head-Change  Column Row Layer    Maximum-Flux-Residual          L2-NORM 
          0                 1           2             2   13     1       0.1562049929E-01       2   13    1         0.8873937950E+00      0.1796585742E+01
          0                 2           2             2   13     1      -0.1476628496E-02       2   13    1        -0.8464811733E-01      0.1751953438E+00
          0                 3           2             2   13     1       0.1248757550E-03       2   13    1         0.7223126398E-02      0.1534329407E-01
          0                 4           1             2   13     1      -0.9337224180E-05       2   13    1        -0.5449413347E-03      0.1193755419E-02

    ------------------------------------------------
       NWT REQUIRED            4 OUTER ITERATIONS 
       AND A TOTAL OF          7 INNER ITERATIONS.
    ------------------------------------------------

 NO OUTPUT CONTROL FOR STRESS PERIOD   17   TIME STEP    8
 
 SOLVING FOR HEAD 
                                                   Max.-Head-Change                         Max.-Flux-Residual
  Residual-Control   Outer-Iter.   Inner-Iter.     Column Row Layer    Maximum-Head-Change  Column Row Layer    Maximum-Flux-Residual          L2-NORM 
          0                 1           2             2    2     1       0.8499173751E-02       2    2    1         0.4444802502E+00      0.1117990693E+01
          0                 2           2             2    2     1      -0.8421942673E-03       2    2    1        -0.4444824560E-01      0.1103867558E+00
          0                 3           1             2    2     1       0.7510902440E-04       2    2    1         0.4000340439E-02      0.9801687292E-02

    ------------------------------------------------
       NWT REQUIRED            3 OUTER ITERATIONS 
       AND A TOTAL OF          5 INNER ITERATIONS.
    ------------------------------------------------

 NO OUTPUT CONTROL FOR STRESS PERIOD   17   TIME STEP    9
 
 SOLVING FOR HEAD 
                                                   Max.-Head-Change                         Max.-Flux-Residual
  Residual-Control   Outer-Iter.   Inner-Iter.     Column Row Layer    Maximum-Head-Change  Column Row Layer    Maximum-Flux-Residual          L2-NORM 
          0                 1           2             2    2     1       0.8438797261E-02       2    2    1         0.4413014741E+00      0.1080056422E+01
          0                 2           2             2    2     1      -0.8362114412E-03       2    2    1        -0.4413036382E-01      0.1067550231E+00
          0                 3           1             2    2     1       0.7457546088E-04       2    2    1         0.3971731106E-02      0.9489961205E-02

    ------------------------------------------------
       NWT REQUIRED            3 OUTER ITERATIONS 
       AND A TOTAL OF          5 INNER ITERATIONS.
    ------------------------------------------------

 NO OUTPUT CONTROL FOR STRESS PERIOD   17   TIME STEP   10
 
 SOLVING FOR HEAD 
                                                   Max.-Head-Change                         Max.-Flux-Residual
  Residual-Control   Outer-Iter.   Inner-Iter.     Column Row Layer    Maximum-Head-Change  Column Row Layer    Maximum-Flux-Residual          L2-NORM 
          0                 1           2             2    2     1       0.8379292514E-02       2    2    1         0.4381686356E+00      0.1046001808E+01
          0                 2           2             2    2     1      -0.8303149988E-03       2    2    1        -0.4381707589E-01      0.1034952598E+00
          0                 3           1             2    2     1       0.7404960164E-04       2    2    1         0.3943535233E-02      0.9209043713E-02

    ------------------------------------------------
       NWT REQUIRED            3 OUTER ITERATIONS 
       AND A TOTAL OF          5 INNER ITERATIONS.
    ------------------------------------------------

 NO OUTPUT CONTROL FOR STRESS PERIOD   17   TIME STEP   11
 
 SOLVING FOR HEAD 
                                                   Max.-Head-Change                         Max.-Flux-Residual
  Residual-Control   Outer-Iter.   Inner-Iter.     Column Row Layer    Maximum-Head-Change  Column Row Layer    Maximum-Flux-Residual          L2-NORM 
          0                 1           2             2    2     1       0.8320557546E-02       2    2    1         0.4350764546E+00      0.1015408889E+01
          0                 2           2             2    2     1      -0.8244948358E-03       2    2    1        -0.4350785380E-01      0.1005632533E+00
          0                 3           1             2    2     1       0.7353054515E-04       2    2    1         0.3915705288E-02      0.8957789641E-02

    ------------------------------------------------
       NWT REQUIRED            3 OUTER ITERATIONS 
       AND A TOTAL OF          5 INNER ITERATIONS.
    ------------------------------------------------

 NO OUTPUT CONTROL FOR STRESS PERIOD   17   TIME STEP   12
 
 SOLVING FOR HEAD 
                                                   Max.-Head-Change                         Max.-Flux-Residual
  Residual-Control   Outer-Iter.   Inner-Iter.     Column Row Layer    Maximum-Head-Change  Column Row Layer    Maximum-Flux-Residual          L2-NORM 
          0                 1           2             2    2     1       0.8262667427E-02       2    2    1         0.4320287917E+00      0.9878879523E+00
          0                 2           2             2    2     1      -0.8187583912E-03       2    2    1        -0.4320308363E-01      0.9792569494E-01
          0                 3           1             2    2     1       0.7301895497E-04       2    2    1         0.3888276003E-02      0.8731827676E-02

    ------------------------------------------------
       NWT REQUIRED            3 OUTER ITERATIONS 
       AND A TOTAL OF          5 INNER ITERATIONS.
    ------------------------------------------------

 NO OUTPUT CONTROL FOR STRESS PERIOD   17   TIME STEP   13
 
 SOLVING FOR HEAD 
                                                   Max.-Head-Change                         Max.-Flux-Residual
  Residual-Control   Outer-Iter.   Inner-Iter.     Column Row Layer    Maximum-Head-Change  Column Row Layer    Maximum-Flux-Residual          L2-NORM 
          0                 1           2             2    2     1       0.8205608484E-02       2    2    1         0.4290249667E+00      0.9630981414E+00
          0                 2           2             2    2     1      -0.8131043107E-03       2    2    1        -0.4290269737E-01      0.9554793606E-01
          0                 3           1             2    2     1       0.7251470979E-04       2    2    1         0.3861241277E-02      0.8527087711E-02

    ------------------------------------------------
       NWT REQUIRED            3 OUTER ITERATIONS 
       AND A TOTAL OF          5 INNER ITERATIONS.
    ------------------------------------------------

 NO OUTPUT CONTROL FOR STRESS PERIOD   17   TIME STEP   14
 
 SOLVING FOR HEAD 
                                                   Max.-Head-Change                         Max.-Flux-Residual
  Residual-Control   Outer-Iter.   Inner-Iter.     Column Row Layer    Maximum-Head-Change  Column Row Layer    Maximum-Flux-Residual          L2-NORM 
          0                 1           2             2    2     1       0.8149280617E-02       2    2    1         0.4260596937E+00      0.1042692627E+01
          0                 2           2             2    2     1      -0.8075226734E-03       2    2    1        -0.4260616634E-01      0.1030648090E+00
          0                 3           1             2    2     1       0.7201692549E-04       2    2    1         0.3834553514E-02      0.9162409452E-02

    ------------------------------------------------
       NWT REQUIRED            3 OUTER ITERATIONS 
       AND A TOTAL OF          5 INNER ITERATIONS.
    ------------------------------------------------

 NO OUTPUT CONTROL FOR STRESS PERIOD   17   TIME STEP   15
 
 SOLVING FOR HEAD 
                                                   Max.-Head-Change                         Max.-Flux-Residual
  Residual-Control   Outer-Iter.   Inner-Iter.     Column Row Layer    Maximum-Head-Change  Column Row Layer    Maximum-Flux-Residual          L2-NORM 
          0                 1           2             2   13     1       0.1151787121E-01       2   13    1         0.6540948735E+00      0.1455102746E+01
          0                 2           2             2   13     1      -0.1087952866E-02       2   13    1        -0.6234312667E-01      0.1423588064E+00
          0                 3           1             2   13     1       0.9191434208E-04       2   13    1         0.5314315089E-02      0.1251402338E-01

    ------------------------------------------------
       NWT REQUIRED            3 OUTER ITERATIONS 
       AND A TOTAL OF          5 INNER ITERATIONS.
    ------------------------------------------------

 NO OUTPUT CONTROL FOR STRESS PERIOD   17   TIME STEP   16
 
 SOLVING FOR HEAD 
                                                   Max.-Head-Change                         Max.-Flux-Residual
  Residual-Control   Outer-Iter.   Inner-Iter.     Column Row Layer    Maximum-Head-Change  Column Row Layer    Maximum-Flux-Residual          L2-NORM 
          0                 1           2             2   13     1       0.1058003133E-01       2   13    1         0.6007385737E+00      0.1377155548E+01
          0                 2           2             2   13     1      -0.9997416578E-03       2   13    1        -0.5727865446E-01      0.1349043783E+00
          0                 3           1             2   13     1       0.8451359035E-04       2   13    1         0.4885580536E-02      0.1187507410E-01

    ------------------------------------------------
       NWT REQUIRED            3 OUTER ITERATIONS 
       AND A TOTAL OF          5 INNER ITERATIONS.
    ------------------------------------------------

 NO OUTPUT CONTROL FOR STRESS PERIOD   17   TIME STEP   17
 
 SOLVING FOR HEAD 
                                                   Max.-Head-Change                         Max.-Flux-Residual
  Residual-Control   Outer-Iter.   Inner-Iter.     Column Row Layer    Maximum-Head-Change  Column Row Layer    Maximum-Flux-Residual          L2-NORM 
          0                 1           2             2   13     1       0.9719889251E-02       2   13    1         0.5518060548E+00      0.1307706942E+01
          0                 2           2             2   13     1      -0.9187810760E-03       2   13    1        -0.5263082274E-01      0.1282678120E+00
          0                 3           1             2   13     1       0.7769286696E-04       2   13    1         0.4490452732E-02      0.1130637554E-01

    ------------------------------------------------
       NWT REQUIRED            3 OUTER ITERATIONS 
       AND A TOTAL OF          5 INNER ITERATIONS.
    ------------------------------------------------

 NO OUTPUT CONTROL FOR STRESS PERIOD   17   TIME STEP   18
 
 SOLVING FOR HEAD 
                                                   Max.-Head-Change                         Max.-Flux-Residual
  Residual-Control   Outer-Iter.   Inner-Iter.     Column Row Layer    Maximum-Head-Change  Column Row Layer    Maximum-Flux-Residual          L2-NORM 
          0                 1           2             2   13     1       0.8931052643E-02       2   13    1         0.5069332636E+00      0.1245867952E+01
          0                 2           2             2   13     1      -0.8444675948E-03       2   13    1        -0.4836490199E-01      0.1223635374E+00
          0                 3           1             2   13     1       0.7143241423E-04       2   13    1         0.4127812566E-02      0.1080168185E-01

    ------------------------------------------------
       NWT REQUIRED            3 OUTER ITERATIONS 
       AND A TOTAL OF          5 INNER ITERATIONS.
    ------------------------------------------------

 NO OUTPUT CONTROL FOR STRESS PERIOD   17   TIME STEP   19
 
 SOLVING FOR HEAD 
                                                   Max.-Head-Change                         Max.-Flux-Residual
  Residual-Control   Outer-Iter.   Inner-Iter.     Column Row Layer    Maximum-Head-Change  Column Row Layer    Maximum-Flux-Residual          L2-NORM 
          0                 1           2             2   13     1       0.8207467436E-02       2   13    1         0.4657754334E+00      0.1190807106E+01
          0                 2           2             2    2     1      -0.7807446649E-03       2   13    1        -0.4444736297E-01      0.1171070528E+00
          0                 3           1             2    2     1       0.6962879631E-04       2   13    1         0.3794027866E-02      0.1035213559E-01

    ------------------------------------------------
       NWT REQUIRED            3 OUTER ITERATIONS 
       AND A TOTAL OF          5 INNER ITERATIONS.
    ------------------------------------------------

 NO OUTPUT CONTROL FOR STRESS PERIOD   17   TIME STEP   20
 
 SOLVING FOR HEAD 
                                                   Max.-Head-Change                         Max.-Flux-Residual
  Residual-Control   Outer-Iter.   Inner-Iter.     Column Row Layer    Maximum-Head-Change  Column Row Layer    Maximum-Flux-Residual          L2-NORM 
          0                 1           2             2    2     1       0.7827109072E-02       2   13    1         0.4280325536E+00      0.1141814888E+01
          0                 2           2             2    2     1      -0.7755980862E-03       2    2    1        -0.4091029498E-01      0.1124332970E+00
          0                 3           1             2    2     1       0.6916981170E-04       2    2    1         0.3681925268E-02      0.9953804839E-02

    ------------------------------------------------
       NWT REQUIRED            3 OUTER ITERATIONS 
       AND A TOTAL OF          5 INNER ITERATIONS.
    ------------------------------------------------

 NO OUTPUT CONTROL FOR STRESS PERIOD   17   TIME STEP   21
 
 SOLVING FOR HEAD 
                                                   Max.-Head-Change                         Max.-Flux-Residual
  Residual-Control   Outer-Iter.   Inner-Iter.     Column Row Layer    Maximum-Head-Change  Column Row Layer    Maximum-Flux-Residual          L2-NORM 
          0                 1           2             2    2     1       0.7775994021E-02       2    2    1         0.4064108116E+00      0.1098193101E+01
          0                 2           2             2    2     1      -0.7705330010E-03       2    2    1        -0.4064125455E-01      0.1082738213E+00
          0                 3           1             2    2     1       0.6871809498E-04       2    2    1         0.3657711668E-02      0.9599128991E-02

    ------------------------------------------------
       NWT REQUIRED            3 OUTER ITERATIONS 
       AND A TOTAL OF          5 INNER ITERATIONS.
    ------------------------------------------------

 NO OUTPUT CONTROL FOR STRESS PERIOD   17   TIME STEP   22
 
 SOLVING FOR HEAD 
                                                   Max.-Head-Change                         Max.-Flux-Residual
  Residual-Control   Outer-Iter.   Inner-Iter.     Column Row Layer    Maximum-Head-Change  Column Row Layer    Maximum-Flux-Residual          L2-NORM 
          0                 1           2             2    2     1       0.7725514287E-02       2    2    1         0.4037539549E+00      0.1059355321E+01
          0                 2           2             2    2     1      -0.7655308711E-03       2    2    1        -0.4037556582E-01      0.1045696907E+00
          0                 3           1             2    2     1       0.6827199309E-04       2    2    1         0.3633799719E-02      0.9281937554E-02

    ------------------------------------------------
       NWT REQUIRED            3 OUTER ITERATIONS 
       AND A TOTAL OF          5 INNER ITERATIONS.
    ------------------------------------------------

 NO OUTPUT CONTROL FOR STRESS PERIOD   17   TIME STEP   23
 
 SOLVING FOR HEAD 
                                                   Max.-Head-Change                         Max.-Flux-Residual
  Residual-Control   Outer-Iter.   Inner-Iter.     Column Row Layer    Maximum-Head-Change  Column Row Layer    Maximum-Flux-Residual          L2-NORM 
          0                 1           2             2    2     1       0.7675659347E-02       2    2    1         0.4011300634E+00      0.9779861200E+00
          0                 2           2             2    2     1      -0.7605906532E-03       2    2    1        -0.4011317367E-01      0.9683675006E-01
          0                 3           1             2    2     1       0.6783141174E-04       2    2    1         0.3610184442E-02      0.8624294686E-02

    ------------------------------------------------
       NWT REQUIRED            3 OUTER ITERATIONS 
       AND A TOTAL OF          5 INNER ITERATIONS.
    ------------------------------------------------

 NO OUTPUT CONTROL FOR STRESS PERIOD   17   TIME STEP   24
 
 SOLVING FOR HEAD 
                                                   Max.-Head-Change                         Max.-Flux-Residual
  Residual-Control   Outer-Iter.   Inner-Iter.     Column Row Layer    Maximum-Head-Change  Column Row Layer    Maximum-Flux-Residual          L2-NORM 
          0                 1           2             2    2     1       0.7626506037E-02       2    2    1         0.3985431699E+00      0.8211602290E+00
          0                 2           2             2    2     1      -0.7557199621E-03       2    2    1        -0.3985448141E-01      0.8198984473E-01
          0                 3           1             2    2     1       0.6739703095E-04       2    2    1         0.3586902155E-02      0.7367820302E-02

    ------------------------------------------------
       NWT REQUIRED            3 OUTER ITERATIONS 
       AND A TOTAL OF          5 INNER ITERATIONS.
    ------------------------------------------------

 NO OUTPUT CONTROL FOR STRESS PERIOD   17   TIME STEP   25
 
 SOLVING FOR HEAD 
                                                   Max.-Head-Change                         Max.-Flux-Residual
  Residual-Control   Outer-Iter.   Inner-Iter.     Column Row Layer    Maximum-Head-Change  Column Row Layer    Maximum-Flux-Residual          L2-NORM 
          0                 1           2             2    2     1       0.7578043195E-02       2    2    1         0.3959926830E+00      0.8065922486E+00
          0                 2           2             2    2     1      -0.7509176904E-03       2    2    1        -0.3959942985E-01      0.8055868084E-01
          0                 3           1             2    2     1       0.6696875224E-04       2    2    1         0.3563947525E-02      0.7240887486E-02

    ------------------------------------------------
       NWT REQUIRED            3 OUTER ITERATIONS 
       AND A TOTAL OF          5 INNER ITERATIONS.
    ------------------------------------------------

 NO OUTPUT CONTROL FOR STRESS PERIOD   17   TIME STEP   26
 
 SOLVING FOR HEAD 
                                                   Max.-Head-Change                         Max.-Flux-Residual
  Residual-Control   Outer-Iter.   Inner-Iter.     Column Row Layer    Maximum-Head-Change  Column Row Layer    Maximum-Flux-Residual          L2-NORM 
          0                 1           2             2    2     1       0.7530260528E-02       2    2    1         0.3934780233E+00      0.7938988657E+00
          0                 2           2             2    2     1      -0.7461828198E-03       2    2    1        -0.3934796112E-01      0.7931207153E-01
          0                 3           1             2    2     1       0.6654648500E-04       2    2    1         0.3541315369E-02      0.7132071844E-02

    ------------------------------------------------
       NWT REQUIRED            3 OUTER ITERATIONS 
       AND A TOTAL OF          5 INNER ITERATIONS.
    ------------------------------------------------

 NO OUTPUT CONTROL FOR STRESS PERIOD   17   TIME STEP   27
 
 SOLVING FOR HEAD 
                                                   Max.-Head-Change                         Max.-Flux-Residual
  Residual-Control   Outer-Iter.   Inner-Iter.     Column Row Layer    Maximum-Head-Change  Column Row Layer    Maximum-Flux-Residual          L2-NORM 
          0                 1           2             2    2     1       0.7483059700E-02       2    2    1         0.3909940772E+00      0.7827766375E+00
          0                 2           2             2    2     1      -0.7415056046E-03       2    2    1        -0.3909956378E-01      0.7821572620E-01
          0                 3           1             2    2     1       0.6612935911E-04       2    2    1         0.3518959630E-02      0.7033742463E-02

    ------------------------------------------------
       NWT REQUIRED            3 OUTER ITERATIONS 
       AND A TOTAL OF          5 INNER ITERATIONS.
    ------------------------------------------------

 NO OUTPUT CONTROL FOR STRESS PERIOD   17   TIME STEP   28
 
 SOLVING FOR HEAD 
                                                   Max.-Head-Change                         Max.-Flux-Residual
  Residual-Control   Outer-Iter.   Inner-Iter.     Column Row Layer    Maximum-Head-Change  Column Row Layer    Maximum-Flux-Residual          L2-NORM 
          0                 1           2             4   13     1      -0.1439464441E-01       4   13    1        -0.8315120245E+00      0.1469868412E+01
          0                 2           2             4   13     1       0.1414046376E-02       4   13    1         0.8244515854E-01      0.1435835151E+00
          0                 3           1             4   13     1      -0.1249027931E-03       4   13    1        -0.7350440328E-02      0.1259699234E-01
          0                 4           1             4   13     1       0.9816396709E-05       4   13    1         0.5830948394E-03      0.9813747743E-03

    ------------------------------------------------
       NWT REQUIRED            4 OUTER ITERATIONS 
       AND A TOTAL OF          6 INNER ITERATIONS.
    ------------------------------------------------

 NO OUTPUT CONTROL FOR STRESS PERIOD   17   TIME STEP   29
 
 SOLVING FOR HEAD 
                                                   Max.-Head-Change                         Max.-Flux-Residual
  Residual-Control   Outer-Iter.   Inner-Iter.     Column Row Layer    Maximum-Head-Change  Column Row Layer    Maximum-Flux-Residual          L2-NORM 
          0                 1           2             4   13     1      -0.2335876273E-01       4   13    1        -0.1341385687E+01      0.2303642799E+01
          0                 2           2             4   13     1       0.2307423291E-02       4   13    1         0.1337359184E+00      0.2287942600E+00
          0                 3           2             4   13     1      -0.2041146156E-03       4   13    1        -0.1194040683E-01      0.2008294746E-01
          0                 4           1             4   13     1       0.1605362684E-04       4   13    1         0.9478632010E-03      0.1564815508E-02

    ------------------------------------------------
       NWT REQUIRED            4 OUTER ITERATIONS 
       AND A TOTAL OF          7 INNER ITERATIONS.
    ------------------------------------------------

 NO OUTPUT CONTROL FOR STRESS PERIOD   17   TIME STEP   30



 STREAM LISTING     PERIOD     17   STEP       30

 LAYER ROW COL. STREAM  RCH.  FLOW INTO     FLOW TO   FLOW OUT OF   OVRLND.     DIRECT     STREAM       STREAM     STREAM     STREAM   STREAMBED  STREAMBED
                SEG.NO.  NO.  STRM. RCH.    AQUIFER    STRM. RCH.    RUNOFF     PRECIP       ET          HEAD       DEPTH      WIDTH   CONDCTNC.   GRADIENT

   1    1    1     1     1    3.5000E+01  2.8629E-01   3.4714E+01  0.000E+00  0.000E+00  0.000E+00  1.09434E+03  1.292E+00  1.482E+01  6.670E-02  1.431E+00
   1    2    2     1     2    3.4714E+01  4.4325E-01   3.4270E+01  0.000E+00  0.000E+00  0.000E+00  1.08935E+03  1.289E+00  1.476E+01  1.033E-01  1.430E+00
   1    3    3     1     3    3.4270E+01  3.7790E-01   3.3893E+01  0.000E+00  0.000E+00  0.000E+00  1.08370E+03  1.286E+00  1.470E+01  8.817E-02  1.429E+00
   1    3    4     1     4    3.3893E+01  3.4789E-01   3.3545E+01  0.000E+00  0.000E+00  0.000E+00  1.07869E+03  1.283E+00  1.464E+01  8.123E-02  1.428E+00
   1    4    5     2     1    3.1545E+01  3.4194E-01   3.1203E+01  0.000E+00  0.000E+00  0.000E+00  1.07332E+03  1.384E+00  1.200E+01  7.800E-02  1.461E+00
   1    5    6     2     2    3.1203E+01  2.6255E-01   3.0940E+01  0.000E+00  0.000E+00  0.000E+00  1.06789E+03  1.376E+00  1.200E+01  6.000E-02  1.459E+00
   1    6    6     2     3    3.0940E+01  2.6213E-01   3.0678E+01  0.000E+00  0.000E+00  0.000E+00  1.06316E+03  1.369E+00  1.200E+01  6.000E-02  1.456E+00
   1    7    6     2     4    3.0678E+01  2.6171E-01   3.0416E+01  0.000E+00  0.000E+00  0.000E+00  1.05844E+03  1.362E+00  1.200E+01  6.000E-02  1.454E+00
   1    8    6     2     5    3.0416E+01  2.6129E-01   3.0155E+01  0.000E+00  0.000E+00  0.000E+00  1.05371E+03  1.355E+00  1.200E+01  6.000E-02  1.452E+00
   1    3    5     3     1    2.0000E+00  2.8252E-01   1.7175E+00  0.000E+00  0.000E+00  0.000E+00  1.07555E+03  1.909E+00  9.636E+00  7.227E-02  1.955E+00
   1    3    6     3     2    1.7175E+00  2.4905E-01   1.4684E+00  0.000E+00  0.000E+00  0.000E+00  1.07264E+03  1.727E+00  8.909E+00  6.682E-02  1.864E+00
   1    3    7     3     3    1.4684E+00  1.9718E-01   1.2712E+00  0.000E+00  0.000E+00  0.000E+00  1.06987E+03  1.555E+00  8.218E+00  5.547E-02  1.777E+00
   1    4    8     3     4    1.2712E+00  2.2567E-01   1.0456E+00  0.000E+00  0.000E+00  0.000E+00  1.06682E+03  1.364E+00  7.455E+00  6.709E-02  1.682E+00
   1    5    8     3     5    1.0456E+00  1.5790E-01   8.8768E-01  0.000E+00  0.000E+00  0.000E+00  1.06362E+03  1.164E+00  6.655E+00  4.991E-02  1.582E+00
   1    6    8     3     6    8.8768E-01  5.5980E-02   8.3170E-01  0.000E+00  0.000E+00  0.000E+00  1.06158E+03  1.036E+00  6.145E+00  1.844E-02  1.518E+00
   1    5   10     4     1    1.0000E+01  9.0919E-02   9.9091E+00  0.000E+00  0.000E+00  0.000E+00  1.07836E+03  6.368E-01  1.000E+01  2.500E-02  1.212E+00
   1    5    9     4     2    9.9091E+00  1.8158E-01   9.7275E+00  0.000E+00  0.000E+00  0.000E+00  1.07154E+03  6.315E-01  1.000E+01  5.000E-02  1.211E+00
   1    6    8     4     3    9.7275E+00  1.2689E-01   9.6006E+00  0.000E+00  0.000E+00  0.000E+00  1.06381E+03  6.256E-01  1.000E+01  3.500E-02  1.209E+00
   1    6    8     5     1    1.0432E+01  2.2686E-01   1.0205E+01  0.000E+00  0.000E+00  0.000E+00  1.05868E+03  6.790E-01  1.542E+01  6.166E-02  1.226E+00
   1    7    7     5     2    1.0205E+01  2.7894E-01   9.9265E+00  0.000E+00  0.000E+00  0.000E+00  1.05417E+03  6.732E-01  1.519E+01  7.594E-02  1.224E+00
   1    8    7     5     3    9.9265E+00  1.9221E-01   9.7343E+00  0.000E+00  0.000E+00  0.000E+00  1.04992E+03  6.676E-01  1.497E+01  5.241E-02  1.223E+00
   1    8    6     5     4    9.7343E+00  1.3577E-01   9.5985E+00  0.000E+00  0.000E+00  0.000E+00  1.04691E+03  6.637E-01  1.482E+01  3.706E-02  1.221E+00
   1    9    6     6     1    1.9754E+01  2.4337E-01   1.9510E+01  0.000E+00  0.000E+00  0.000E+00  1.04378E+03  1.056E+00  1.200E+01  6.000E-02  1.352E+00
   1   10    7     6     2    1.9510E+01  2.4290E-01   1.9267E+01  0.000E+00  0.000E+00  0.000E+00  1.03923E+03  1.048E+00  1.200E+01  6.000E-02  1.349E+00
   1   11    7     6     3    1.9267E+01  2.4243E-01   1.9025E+01  0.000E+00  0.000E+00  0.000E+00  1.03468E+03  1.040E+00  1.200E+01  6.000E-02  1.347E+00
   1   12    7     6     4    1.9025E+01  2.4195E-01   1.8783E+01  0.000E+00  0.000E+00  0.000E+00  1.03012E+03  1.033E+00  1.200E+01  6.000E-02  1.344E+00
   1   13    7     6     5    1.8783E+01 -3.6518E-02   1.8819E+01  0.000E+00  0.000E+00  0.000E+00  1.02694E+03  1.029E+00  1.200E+01  2.400E-01 -5.072E-02
   1   14    9     7     1    1.5000E+02  1.3408E+00   1.4866E+02  0.000E+00  0.000E+00  0.000E+00  1.03987E+03  2.288E+00  5.529E+01  5.593E-01  7.991E-01
   1   13    8     7     2    1.4866E+02  1.8393E+00   1.4682E+02  0.000E+00  0.000E+00  0.000E+00  1.03478E+03  2.279E+00  5.526E+01  6.148E-01  9.973E-01
   1   13    7     7     3    1.4682E+02  1.4516E+00   1.4537E+02  0.000E+00  0.000E+00  0.000E+00  1.02969E+03  2.270E+00  5.522E+01  5.585E-01  8.665E-01
   1   13    6     8     1    1.6419E+02  8.4286E-01   1.6334E+02  0.000E+00  0.000E+00  0.000E+00  1.02479E+03  2.911E+00  4.221E+01  4.301E-01  6.532E-01
   1   13    5     8     2    1.6334E+02  1.0439E-01   1.6324E+02  0.000E+00  0.000E+00  0.000E+00  1.01853E+03  2.908E+00  4.217E+01  4.297E-01  8.098E-02
   1   13    4     8     3    1.6324E+02 -3.4381E+00   1.6668E+02  0.000E+00  0.000E+00  0.000E+00  1.01229E+03  2.919E+00  4.233E+01  4.313E+00 -2.657E-01
   1   13    3     8     4    1.6668E+02 -4.5695E+00   1.7125E+02  0.000E+00  0.000E+00  0.000E+00  1.00607E+03  2.945E+00  4.271E+01  4.352E+00 -3.500E-01
   1   13    2     8     5    1.7125E+02 -3.6115E+00   1.7486E+02  0.000E+00  0.000E+00  0.000E+00  9.99847E+02  2.972E+00  4.309E+01  4.391E+00 -2.741E-01
   1   13    1     8     6    1.7486E+02 -2.4662E+00   1.7733E+02  0.000E+00  0.000E+00  0.000E+00  9.94866E+02  2.991E+00  4.338E+01  2.652E+00 -3.100E-01
   1    6    8     9     1    2.0000E+01  0.0000E+00   2.0000E+01  0.000E+00  0.000E+00  0.000E+00  1.07932E+03  8.168E-01  4.000E+00  0.000E+00  1.272E+00





UNSATURATED ZONE PACKAGE VOLUMETRIC BUDGET FOR  TIME STEP    30 STRESS PERIOD   17
  ------------------------------------------------------------------------------



     CUMULATIVE VOLUMES      L**3       RATES FOR THIS TIME STEP      L**3/T
     ------------------                 ------------------------

           IN:                                      IN:
           ---                                      ---
        INFILTRATION =    69965234.4697          INFILTRATION =           0.0785

          OUT:                                     OUT:
          ----                                     ----
              UZF ET =    49709023.7064                UZF ET =           0.6790
        UZF RECHARGE =       73224.0000          UZF RECHARGE =       0.0000E+00

            IN - OUT =    20182986.7634              IN - OUT =          -0.6005

          STORAGE:                                 STORAGE:
          --------                                 --------
      STORAGE CHANGE =    20182645.8238        STORAGE CHANGE =          -0.6005

 PERCENT DISCREPANCY IS DIFFERENCE BETWEEN IN-OUT MINUS CHANGE IN STORAGE
 DIVIDED BY THE AVERAGE OF IN AND OUT TIMES 100

 PERCENT DISCREPANCY =           0.00     PERCENT DISCREPANCY =           0.00






1
  VOLUMETRIC BUDGET FOR ENTIRE MODEL AT END OF TIME STEP   30, STRESS PERIOD  17
  ------------------------------------------------------------------------------

     CUMULATIVE VOLUMES      L**3       RATES FOR THIS TIME STEP      L**3/T
     ------------------                 ------------------------

           IN:                                      IN:
           ---                                      ---
    AWU WELLS            =    69892016.0000      AWU WELLS            =       7.8463E-02
    DIVERSION SEGMENTS   =           0.0000      DIVERSION SEGMENTS   =           0.0000
    GW IRRIGATION        =           0.0000      GW IRRIGATION        =           0.0000
    SW IRRIGATION        =           0.0000      SW IRRIGATION        =           0.0000
    EFFICIENCY FACTOR GW =           0.0000      EFFICIENCY FACTOR GW =           0.0000
    EFFICIENCY FACTOR SW =           0.0000      EFFICIENCY FACTOR SW =           0.0000

                TOTAL IN =    69892016.0000                  TOTAL IN =       7.8463E-02

          OUT:                                     OUT:
          ----                                     ----
    AWU WELLS            =           0.0000      AWU WELLS            =           0.0000
    DIVERSION SEGMENTS   =           0.0000      DIVERSION SEGMENTS   =           0.0000
    GW IRRIGATION        =    69892016.0000      GW IRRIGATION        =       7.8463E-02
    SW IRRIGATION        =           0.0000      SW IRRIGATION        =           0.0000
    EFFICIENCY FACTOR GW =           0.0000      EFFICIENCY FACTOR GW =           0.0000
    EFFICIENCY FACTOR SW =           0.0000      EFFICIENCY FACTOR SW =           0.0000

               TOTAL OUT =    69892016.0000                 TOTAL OUT =       7.8463E-02

                IN - OUT =           0.0000                  IN - OUT =           0.0000

     PERCENT DISCREPANCY =           0.00         PERCENT DISCREPANCY =           0.00



1
  VOLUMETRIC BUDGET FOR ENTIRE MODEL AT END OF TIME STEP   30, STRESS PERIOD  17
  ------------------------------------------------------------------------------

     CUMULATIVE VOLUMES      L**3       RATES FOR THIS TIME STEP      L**3/T
     ------------------                 ------------------------

           IN:                                      IN:
           ---                                      ---
             STORAGE     =   130886624.0000               STORAGE     =           4.9843
       CONSTANT HEAD     =           0.0000         CONSTANT HEAD     =           0.0000
     HEAD DEP BOUNDS     =    12047330.0000       HEAD DEP BOUNDS     =           0.2861
      STREAM LEAKAGE     =   497560672.0000        STREAM LEAKAGE     =          11.7961
        UZF RECHARGE     =       73223.9531          UZF RECHARGE     =           0.0000
               GW ET     =           0.0000                 GW ET     =           0.0000
     SURFACE LEAKAGE     =           0.0000       SURFACE LEAKAGE     =           0.0000
    AWU WELLS            =           0.0000      AWU WELLS            =           0.0000

                TOTAL IN =   640567808.0000                  TOTAL IN =          17.0665

          OUT:                                     OUT:
          ----                                     ----
             STORAGE     =    91651504.0000               STORAGE     =           2.0353
       CONSTANT HEAD     =           0.0000         CONSTANT HEAD     =           0.0000
     HEAD DEP BOUNDS     =    12103203.0000       HEAD DEP BOUNDS     =           0.2963
      STREAM LEAKAGE     =   411428672.0000        STREAM LEAKAGE     =          14.1219
        UZF RECHARGE     =           0.0000          UZF RECHARGE     =           0.0000
               GW ET     =    55489244.0000                 GW ET     =           0.5346
     SURFACE LEAKAGE     =           0.0000       SURFACE LEAKAGE     =           0.0000
    AWU WELLS            =    69892016.0000      AWU WELLS            =       7.8463E-02

               TOTAL OUT =   640564608.0000                 TOTAL OUT =          17.0666

                IN - OUT =        3200.0000                  IN - OUT =      -1.2207E-04

     PERCENT DISCREPANCY =           0.00         PERCENT DISCREPANCY =          -0.00






         TIME SUMMARY AT END OF TIME STEP   30 IN STRESS PERIOD   17
                    SECONDS     MINUTES      HOURS       DAYS        YEARS
                    -----------------------------------------------------------
   TIME STEP LENGTH  87600.      1460.0      24.333      1.0139     2.77588E-03
 STRESS PERIOD TIME 2.62800E+06  43800.      730.00      30.417     8.32763E-02
         TOTAL TIME 4.21344E+07 7.02240E+05  11704.      487.67      1.3352    
1
1
                            STRESS PERIOD NO.   18, LENGTH =   2628000.    
                            -----------------------------------------------

                              NUMBER OF TIME STEPS =    30

                               MULTIPLIER FOR DELT =     1.000

                            INITIAL TIME STEP SIZE =   87600.00    

 REUSING NON-PARAMETER GHB CELLS FROM LAST STRESS PERIOD

      2 GHB CELLS

 REUSING STREAM SEGMENT DATA FROM LAST STRESS PERIOD



            AREAL INFILTRATION RATE
 READING ON UNIT   19 WITH FORMAT: (10F4.0)            

            1           2           3           4           5           6           7           8           9          10
 ........................................................................................................................
   1    0.000       0.000       0.000       0.000       0.000       0.000       0.000       0.000       0.000       0.000    
   2    0.000       0.000       0.000       0.000       0.000       0.000       0.000       0.000       0.000       0.000    
   3    0.000       0.000       0.000       0.000       0.000       0.000       0.000       0.000       0.000       0.000    
   4    0.000       0.000       0.000       0.000       0.000       0.000       0.000       0.000       0.000       0.000    
   5    0.000       0.000       0.000       0.000       0.000       0.000       0.000       0.000       0.000       0.000    
   6    0.000       0.000       0.000       0.000       0.000       0.000       0.000       0.000       0.000       0.000    
   7    0.000       0.000       0.000       0.000       0.000       0.000       0.000       0.000       0.000       0.000    
   8    0.000       0.000       0.000       0.000       0.000       0.000       0.000       0.000       0.000       0.000    
   9    0.000       0.000       0.000       0.000       0.000       0.000       0.000       0.000       0.000       0.000    
  10    0.000       0.000       0.000       0.000       0.000       0.000       0.000       0.000       0.000       0.000    
  11    0.000       0.000       0.000       0.000       0.000       0.000       0.000       0.000       0.000       0.000    
  12    0.000       0.000       0.000       0.000       0.000       0.000       0.000       0.000       0.000       0.000    
  13    0.000       0.000       0.000       0.000       0.000       0.000       0.000       0.000       0.000       0.000    
  14    0.000       0.000       0.000       0.000       0.000       0.000       0.000       0.000       0.000       0.000    
  15    0.000       0.000       0.000       0.000       0.000       0.000       0.000       0.000       0.000       0.000    

                  ET RATE =  1.000000E-08

 USING ET EXTINCTION DEPTH FROM PREVIOUS STRESS PERIOD. CURRENT PERIOD IS:      18

 USING EXTINCTION WATER CONTENT FROM PREVIOUS STRESS PERIOD. CURRENT PERIOD IS:      18

 PROCESSING AWU STRESS PERIOD DATA

 READING AWU STRESS PERIOD DATA

 READING IRRIGATION WELL

 END PROCESSING AWU STRESS PERIOD DATA OPTIONS
 
 SOLVING FOR HEAD 
                                                   Max.-Head-Change                         Max.-Flux-Residual
  Residual-Control   Outer-Iter.   Inner-Iter.     Column Row Layer    Maximum-Head-Change  Column Row Layer    Maximum-Flux-Residual          L2-NORM 
          0                 1           2             4   13     1      -0.2137801511E-01       4   13    1        -0.1227370785E+01      0.2140761301E+01
          0                 2           2             4   13     1       0.2100462478E-02       4   13    1         0.1217139275E+00      0.2088189926E+00
          0                 3           2             4   13     1      -0.1855681261E-03       4   13    1        -0.1085303140E-01      0.1828701692E-01
          0                 4           1             4   13     1       0.1457943668E-04       4   13    1         0.8606219653E-03      0.1421492765E-02

    ------------------------------------------------
       NWT REQUIRED            4 OUTER ITERATIONS 
       AND A TOTAL OF          7 INNER ITERATIONS.
    ------------------------------------------------

 NO OUTPUT CONTROL FOR STRESS PERIOD   18   TIME STEP    1
 
 SOLVING FOR HEAD 
                                                   Max.-Head-Change                         Max.-Flux-Residual
  Residual-Control   Outer-Iter.   Inner-Iter.     Column Row Layer    Maximum-Head-Change  Column Row Layer    Maximum-Flux-Residual          L2-NORM 
          0                 1           2             4   13     1      -0.1386239346E-01       4   13    1        -0.7972037777E+00      0.1440742138E+01
          0                 2           2             4   13     1       0.1361126045E-02       4   13    1         0.7900434543E-01      0.1403791453E+00
          0                 3           2             4   13     1      -0.1201767029E-03       4   13    1        -0.7040430270E-02      0.1227891270E-01
          0                 4           1             4   13     1       0.9734999357E-05       4   13    1         0.5758092102E-03      0.9639002565E-03

    ------------------------------------------------
       NWT REQUIRED            4 OUTER ITERATIONS 
       AND A TOTAL OF          7 INNER ITERATIONS.
    ------------------------------------------------

 NO OUTPUT CONTROL FOR STRESS PERIOD   18   TIME STEP    2
 
 SOLVING FOR HEAD 
                                                   Max.-Head-Change                         Max.-Flux-Residual
  Residual-Control   Outer-Iter.   Inner-Iter.     Column Row Layer    Maximum-Head-Change  Column Row Layer    Maximum-Flux-Residual          L2-NORM 
          0                 1           2             4   13     1      -0.1254383459E-01       4   13    1        -0.7210351124E+00      0.1330624468E+01
          0                 2           2             4   13     1       0.1231544647E-02       4   13    1         0.7144909505E-01      0.1296594490E+00
          0                 3           1             4   13     1      -0.1087036129E-03       4   13    1        -0.6365241736E-02      0.1134216698E-01
          0                 4           1             4   13     1       0.8504137705E-05       4   13    1         0.5025999581E-03      0.8788954404E-03

    ------------------------------------------------
       NWT REQUIRED            4 OUTER ITERATIONS 
       AND A TOTAL OF          6 INNER ITERATIONS.
    ------------------------------------------------

 NO OUTPUT CONTROL FOR STRESS PERIOD   18   TIME STEP    3
 
 SOLVING FOR HEAD 
                                                   Max.-Head-Change                         Max.-Flux-Residual
  Residual-Control   Outer-Iter.   Inner-Iter.     Column Row Layer    Maximum-Head-Change  Column Row Layer    Maximum-Flux-Residual          L2-NORM 
          0                 1           2             4   13     1      -0.1135631155E-01       4   13    1        -0.6524586062E+00      0.1230531806E+01
          0                 2           2             4   13     1       0.1114857502E-02       4   13    1         0.6464790296E-01      0.1199197905E+00
          0                 3           1             4   13     1      -0.9841078324E-04       4   13    1        -0.5759723061E-02      0.1049165548E-01

    ------------------------------------------------
       NWT REQUIRED            3 OUTER ITERATIONS 
       AND A TOTAL OF          5 INNER ITERATIONS.
    ------------------------------------------------

 NO OUTPUT CONTROL FOR STRESS PERIOD   18   TIME STEP    4
 
 SOLVING FOR HEAD 
                                                   Max.-Head-Change                         Max.-Flux-Residual
  Residual-Control   Outer-Iter.   Inner-Iter.     Column Row Layer    Maximum-Head-Change  Column Row Layer    Maximum-Flux-Residual          L2-NORM 
          0                 1           2             2   13     1      -0.1032494242E-01       4   13    1        -0.5906506685E+00      0.1139475742E+01
          0                 2           2             4   13     1       0.1009630862E-02       4   13    1         0.5851673730E-01      0.1110657265E+00
          0                 3           1             4   13     1      -0.8910055521E-04       4   13    1        -0.5212177015E-02      0.9718817949E-02

    ------------------------------------------------
       NWT REQUIRED            3 OUTER ITERATIONS 
       AND A TOTAL OF          5 INNER ITERATIONS.
    ------------------------------------------------

 NO OUTPUT CONTROL FOR STRESS PERIOD   18   TIME STEP    5
 
 SOLVING FOR HEAD 
                                                   Max.-Head-Change                         Max.-Flux-Residual
  Residual-Control   Outer-Iter.   Inner-Iter.     Column Row Layer    Maximum-Head-Change  Column Row Layer    Maximum-Flux-Residual          L2-NORM 
          0                 1           2             2   13     1      -0.9548714173E-02       2   13    1        -0.5383164177E+00      0.1056692534E+01
          0                 2           2             4   13     1       0.9148334479E-03       4   13    1         0.5299515101E-01      0.1030196560E+00
          0                 3           1             4   13     1      -0.8073524250E-04       4   13    1        -0.4720383021E-02      0.9017679217E-02

    ------------------------------------------------
       NWT REQUIRED            3 OUTER ITERATIONS 
       AND A TOTAL OF          5 INNER ITERATIONS.
    ------------------------------------------------

 NO OUTPUT CONTROL FOR STRESS PERIOD   18   TIME STEP    6
 
 SOLVING FOR HEAD 
                                                   Max.-Head-Change                         Max.-Flux-Residual
  Residual-Control   Outer-Iter.   Inner-Iter.     Column Row Layer    Maximum-Head-Change  Column Row Layer    Maximum-Flux-Residual          L2-NORM 
          0                 1           2             2   13     1      -0.8831522225E-02       2   13    1        -0.4978354691E+00      0.9814520264E+00
          0                 2           2             2   13     1       0.8383674404E-03       4   13    1         0.4801979731E-01      0.9571446200E-01
          0                 3           1             4   13     1      -0.7318792879E-04       4   13    1        -0.4276827653E-02      0.8381485475E-02

    ------------------------------------------------
       NWT REQUIRED            3 OUTER ITERATIONS 
       AND A TOTAL OF          5 INNER ITERATIONS.
    ------------------------------------------------

 NO OUTPUT CONTROL FOR STRESS PERIOD   18   TIME STEP    7
 
 SOLVING FOR HEAD 
                                                   Max.-Head-Change                         Max.-Flux-Residual
  Residual-Control   Outer-Iter.   Inner-Iter.     Column Row Layer    Maximum-Head-Change  Column Row Layer    Maximum-Flux-Residual          L2-NORM 
          0                 1           2             2   13     1      -0.1107984965E-01       2   13    1        -0.6240647922E+00      0.1200401762E+01
          0                 2           2             2   13     1       0.1053051663E-02       4   13    1         0.6081631650E-01      0.1170392647E+00
          0                 3           1             4   13     1      -0.9279318068E-04       4   13    1        -0.5418012129E-02      0.1024553439E-01

    ------------------------------------------------
       NWT REQUIRED            3 OUTER ITERATIONS 
       AND A TOTAL OF          5 INNER ITERATIONS.
    ------------------------------------------------

 NO OUTPUT CONTROL FOR STRESS PERIOD   18   TIME STEP    8
 
 SOLVING FOR HEAD 
                                                   Max.-Head-Change                         Max.-Flux-Residual
  Residual-Control   Outer-Iter.   Inner-Iter.     Column Row Layer    Maximum-Head-Change  Column Row Layer    Maximum-Flux-Residual          L2-NORM 
          0                 1           2             2   13     1      -0.1454131554E-01       2   13    1        -0.8178511428E+00      0.1544220382E+01
          0                 2           2             4   13     1       0.1406371359E-02       4   13    1         0.8124190979E-01      0.1554194369E+00
          0                 3           2             4   13     1      -0.1243560884E-03       4   13    1        -0.7250420127E-02      0.1372075102E-01
          0                 4           1             4   13     1       0.9780667035E-05       4   13    1         0.5755662323E-03      0.1077577560E-02

    ------------------------------------------------
       NWT REQUIRED            4 OUTER ITERATIONS 
       AND A TOTAL OF          7 INNER ITERATIONS.
    ------------------------------------------------

 NO OUTPUT CONTROL FOR STRESS PERIOD   18   TIME STEP    9
 
 SOLVING FOR HEAD 
                                                   Max.-Head-Change                         Max.-Flux-Residual
  Residual-Control   Outer-Iter.   Inner-Iter.     Column Row Layer    Maximum-Head-Change  Column Row Layer    Maximum-Flux-Residual          L2-NORM 
          0                 1           2             2   13     1      -0.1346725851E-01       2   13    1        -0.7573523028E+00      0.1433282759E+01
          0                 2           2             2   13     1       0.1281997103E-02       4   13    1         0.7309901035E-01      0.1397935212E+00
          0                 3           1             4   13     1      -0.1117518091E-03       4   13    1        -0.6511581019E-02      0.1223922380E-01
          0                 4           1             4   13     1       0.8765978678E-05       4   13    1         0.5155355884E-03      0.9500686684E-03

    ------------------------------------------------
       NWT REQUIRED            4 OUTER ITERATIONS 
       AND A TOTAL OF          6 INNER ITERATIONS.
    ------------------------------------------------

 NO OUTPUT CONTROL FOR STRESS PERIOD   18   TIME STEP   10
 
 SOLVING FOR HEAD 
                                                   Max.-Head-Change                         Max.-Flux-Residual
  Residual-Control   Outer-Iter.   Inner-Iter.     Column Row Layer    Maximum-Head-Change  Column Row Layer    Maximum-Flux-Residual          L2-NORM 
          0                 1           2             2   13     1      -0.1248415400E-01       2   13    1        -0.7019783477E+00      0.1332742882E+01
          0                 2           2             2   13     1       0.1188599104E-02       2   13    1         0.6743748464E-01      0.1300049283E+00
          0                 3           1             4   13     1      -0.1016545572E-03       4   13    1        -0.5919628288E-02      0.1138603721E-01
          0                 4           1             4   13     1       0.7978387827E-05       4   13    1         0.4689131620E-03      0.8852506252E-03

    ------------------------------------------------
       NWT REQUIRED            4 OUTER ITERATIONS 
       AND A TOTAL OF          6 INNER ITERATIONS.
    ------------------------------------------------

 NO OUTPUT CONTROL FOR STRESS PERIOD   18   TIME STEP   11
 
 SOLVING FOR HEAD 
                                                   Max.-Head-Change                         Max.-Flux-Residual
  Residual-Control   Outer-Iter.   Inner-Iter.     Column Row Layer    Maximum-Head-Change  Column Row Layer    Maximum-Flux-Residual          L2-NORM 
          0                 1           2             2   13     1      -0.1157417153E-01       2   13    1        -0.6507282367E+00      0.1240919636E+01
          0                 2           2             2   13     1       0.1102116465E-02       2   13    1         0.6252267490E-01      0.1210710592E+00
          0                 3           1             2   13     1      -0.9397843093E-04       4   13    1        -0.5385118469E-02      0.1060505119E-01

    ------------------------------------------------
       NWT REQUIRED            3 OUTER ITERATIONS 
       AND A TOTAL OF          5 INNER ITERATIONS.
    ------------------------------------------------

 NO OUTPUT CONTROL FOR STRESS PERIOD   18   TIME STEP   12
 
 SOLVING FOR HEAD 
                                                   Max.-Head-Change                         Max.-Flux-Residual
  Residual-Control   Outer-Iter.   Inner-Iter.     Column Row Layer    Maximum-Head-Change  Column Row Layer    Maximum-Flux-Residual          L2-NORM 
          0                 1           2             2   13     1      -0.1073116449E-01       2   13    1        -0.6032549132E+00      0.1156967676E+01
          0                 2           2             2   13     1       0.1022004713E-02       2   13    1         0.5797040004E-01      0.1129069047E+00
          0                 3           1             2   13     1      -0.8716660721E-04       2   13    1        -0.4988818182E-02      0.9892773472E-02

    ------------------------------------------------
       NWT REQUIRED            3 OUTER ITERATIONS 
       AND A TOTAL OF          5 INNER ITERATIONS.
    ------------------------------------------------

 NO OUTPUT CONTROL FOR STRESS PERIOD   18   TIME STEP   13
 
 SOLVING FOR HEAD 
                                                   Max.-Head-Change                         Max.-Flux-Residual
  Residual-Control   Outer-Iter.   Inner-Iter.     Column Row Layer    Maximum-Head-Change  Column Row Layer    Maximum-Flux-Residual          L2-NORM 
          0                 1           2             2   13     1      -0.9950753667E-02       2   13    1        -0.5593109405E+00      0.1080258791E+01
          0                 2           2             2   13     1       0.9478221748E-03       2   13    1         0.5375545101E-01      0.1054515050E+00
          0                 3           1             2   13     1      -0.8086226207E-04       2   13    1        -0.4627359376E-02      0.9243688362E-02

    ------------------------------------------------
       NWT REQUIRED            3 OUTER ITERATIONS 
       AND A TOTAL OF          5 INNER ITERATIONS.
    ------------------------------------------------

 NO OUTPUT CONTROL FOR STRESS PERIOD   18   TIME STEP   14
 
 SOLVING FOR HEAD 
                                                   Max.-Head-Change                         Max.-Flux-Residual
  Residual-Control   Outer-Iter.   Inner-Iter.     Column Row Layer    Maximum-Head-Change  Column Row Layer    Maximum-Flux-Residual          L2-NORM 
          0                 1           2             1   13     1      -0.5697794552E-02       1   13    1        -0.3107178885E+00      0.6348137088E+00
          0                 2           2             7   13     1      -0.7681863948E-03       7   13    1        -0.4199925969E-01      0.7599315441E-01
          0                 3           1             7   13     1       0.6849325727E-04       7   13    1         0.3779092482E-02      0.6748409074E-02

    ------------------------------------------------
       NWT REQUIRED            3 OUTER ITERATIONS 
       AND A TOTAL OF          5 INNER ITERATIONS.
    ------------------------------------------------

 NO OUTPUT CONTROL FOR STRESS PERIOD   18   TIME STEP   15
 
 SOLVING FOR HEAD 
                                                   Max.-Head-Change                         Max.-Flux-Residual
  Residual-Control   Outer-Iter.   Inner-Iter.     Column Row Layer    Maximum-Head-Change  Column Row Layer    Maximum-Flux-Residual          L2-NORM 
          0                 1           2             1   13     1      -0.3517358743E-02       1   13    1        -0.1925763557E+00      0.3680454298E+00
          0                 2           2             1   13     1       0.3444497795E-03       1   13    1         0.1903249266E-01      0.3662281126E-01
          0                 3           1             1   13     1      -0.3032538994E-04       1   13    1        -0.1691058727E-02      0.3278302704E-02

    ------------------------------------------------
       NWT REQUIRED            3 OUTER ITERATIONS 
       AND A TOTAL OF          5 INNER ITERATIONS.
    ------------------------------------------------

 NO OUTPUT CONTROL FOR STRESS PERIOD   18   TIME STEP   16
 
 SOLVING FOR HEAD 
                                                   Max.-Head-Change                         Max.-Flux-Residual
  Residual-Control   Outer-Iter.   Inner-Iter.     Column Row Layer    Maximum-Head-Change  Column Row Layer    Maximum-Flux-Residual          L2-NORM 
          0                 1           2             1   13     1      -0.3338431433E-02       1   13    1        -0.1827897324E+00      0.3578477098E+00
          0                 2           2             1   13     1       0.3269402568E-03       1   13    1         0.1806596959E-01      0.3561835452E-01
          0                 3           1             1   13     1      -0.2878583527E-04       1   13    1        -0.1605291333E-02      0.3189879785E-02

    ------------------------------------------------
       NWT REQUIRED            3 OUTER ITERATIONS 
       AND A TOTAL OF          5 INNER ITERATIONS.
    ------------------------------------------------

 NO OUTPUT CONTROL FOR STRESS PERIOD   18   TIME STEP   17
 
 SOLVING FOR HEAD 
                                                   Max.-Head-Change                         Max.-Flux-Residual
  Residual-Control   Outer-Iter.   Inner-Iter.     Column Row Layer    Maximum-Head-Change  Column Row Layer    Maximum-Flux-Residual          L2-NORM 
          0                 1           2             1   13     1      -0.3168410573E-02       1   13    1        -0.1734895051E+00      0.3485277933E+00
          0                 2           2             1   13     1       0.3103115261E-03       1   13    1         0.1714800682E-01      0.3470006697E-01
          0                 3           1             1   13     1      -0.2732443524E-04       1   13    1        -0.1523877070E-02      0.3108316997E-02

    ------------------------------------------------
       NWT REQUIRED            3 OUTER ITERATIONS 
       AND A TOTAL OF          5 INNER ITERATIONS.
    ------------------------------------------------

 NO OUTPUT CONTROL FOR STRESS PERIOD   18   TIME STEP   18
 
 SOLVING FOR HEAD 
                                                   Max.-Head-Change                         Max.-Flux-Residual
  Residual-Control   Outer-Iter.   Inner-Iter.     Column Row Layer    Maximum-Head-Change  Column Row Layer    Maximum-Flux-Residual          L2-NORM 
          0                 1           2             1   13     1      -0.3006868312E-02       1   13    1        -0.1646523631E+00      0.3399988278E+00
          0                 2           2             1   13     1       0.2945101857E-03       1   13    1         0.1627563838E-01      0.3386325699E-01
          0                 3           1             1   13     1      -0.2595190578E-04       1   13    1        -0.1447408972E-02      0.3034680291E-02

    ------------------------------------------------
       NWT REQUIRED            3 OUTER ITERATIONS 
       AND A TOTAL OF          5 INNER ITERATIONS.
    ------------------------------------------------

 NO OUTPUT CONTROL FOR STRESS PERIOD   18   TIME STEP   19
 
 SOLVING FOR HEAD 
                                                   Max.-Head-Change                         Max.-Flux-Residual
  Residual-Control   Outer-Iter.   Inner-Iter.     Column Row Layer    Maximum-Head-Change  Column Row Layer    Maximum-Flux-Residual          L2-NORM 
          0                 1           2             1   13     1      -0.2853420925E-02       1   13    1        -0.1562574073E+00      0.3322019158E+00
          0                 2           2             1   13     1       0.2794987884E-03       1   13    1         0.1544682035E-01      0.3309281780E-01
          0                 3           1             1   13     1      -0.2461292942E-04       1   13    1        -0.1372793419E-02      0.2966268709E-02

    ------------------------------------------------
       NWT REQUIRED            3 OUTER ITERATIONS 
       AND A TOTAL OF          5 INNER ITERATIONS.
    ------------------------------------------------

 NO OUTPUT CONTROL FOR STRESS PERIOD   18   TIME STEP   20
 
 SOLVING FOR HEAD 
                                                   Max.-Head-Change                         Max.-Flux-Residual
  Residual-Control   Outer-Iter.   Inner-Iter.     Column Row Layer    Maximum-Head-Change  Column Row Layer    Maximum-Flux-Residual          L2-NORM 
          0                 1           2             1   13     1      -0.2707643628E-02       1   13    1        -0.1482814885E+00      0.3250677753E+00
          0                 2           2             1   13     1       0.2652502087E-03       1   13    1         0.1466095106E-01      0.3236677960E-01
          0                 3           1             1   13     1      -0.2337761591E-04       1   13    1        -0.1304934349E-02      0.2882614574E-02

    ------------------------------------------------
       NWT REQUIRED            3 OUTER ITERATIONS 
       AND A TOTAL OF          5 INNER ITERATIONS.
    ------------------------------------------------

 NO OUTPUT CONTROL FOR STRESS PERIOD   18   TIME STEP   21
 
 SOLVING FOR HEAD 
                                                   Max.-Head-Change                         Max.-Flux-Residual
  Residual-Control   Outer-Iter.   Inner-Iter.     Column Row Layer    Maximum-Head-Change  Column Row Layer    Maximum-Flux-Residual          L2-NORM 
          0                 1           2             2   13     1      -0.6196759003E-02       2   13    1        -0.3485140240E+00      0.7140364424E+00
          0                 2           2             2   13     1       0.5895534315E-03       2   13    1         0.3345613730E-01      0.6981058112E-01
          0                 3           1             2   13     1      -0.5022827119E-04       2   13    1        -0.2875985803E-02      0.6130278442E-02

    ------------------------------------------------
       NWT REQUIRED            3 OUTER ITERATIONS 
       AND A TOTAL OF          5 INNER ITERATIONS.
    ------------------------------------------------

 NO OUTPUT CONTROL FOR STRESS PERIOD   18   TIME STEP   22
 
 SOLVING FOR HEAD 
                                                   Max.-Head-Change                         Max.-Flux-Residual
  Residual-Control   Outer-Iter.   Inner-Iter.     Column Row Layer    Maximum-Head-Change  Column Row Layer    Maximum-Flux-Residual          L2-NORM 
          0                 1           2             2   13     1      -0.7925432467E-02       2   13    1        -0.4455132621E+00      0.8926129318E+00
          0                 2           2             2   13     1       0.7662273762E-03       2   13    1         0.4346191313E-01      0.9399549804E-01
          0                 3           1             4   13     1      -0.6559716117E-04       4   13    1        -0.3815763846E-02      0.8405393967E-02

    ------------------------------------------------
       NWT REQUIRED            3 OUTER ITERATIONS 
       AND A TOTAL OF          5 INNER ITERATIONS.
    ------------------------------------------------

 NO OUTPUT CONTROL FOR STRESS PERIOD   18   TIME STEP   23
 
 SOLVING FOR HEAD 
                                                   Max.-Head-Change                         Max.-Flux-Residual
  Residual-Control   Outer-Iter.   Inner-Iter.     Column Row Layer    Maximum-Head-Change  Column Row Layer    Maximum-Flux-Residual          L2-NORM 
          0                 1           2             2   13     1      -0.7338755281E-02       2   13    1        -0.4124766835E+00      0.8365053085E+00
          0                 2           2             2   13     1       0.6983914720E-03       2   13    1         0.3960736054E-01      0.8178163358E-01
          0                 3           1             2   13     1      -0.5952582132E-04       2   13    1        -0.3406231123E-02      0.7181805748E-02

    ------------------------------------------------
       NWT REQUIRED            3 OUTER ITERATIONS 
       AND A TOTAL OF          5 INNER ITERATIONS.
    ------------------------------------------------

 NO OUTPUT CONTROL FOR STRESS PERIOD   18   TIME STEP   24
 
 SOLVING FOR HEAD 
                                                   Max.-Head-Change                         Max.-Flux-Residual
  Residual-Control   Outer-Iter.   Inner-Iter.     Column Row Layer    Maximum-Head-Change  Column Row Layer    Maximum-Flux-Residual          L2-NORM 
          0                 1           2             2   13     1      -0.6806833306E-02       2   13    1        -0.3825243441E+00      0.7855616822E+00
          0                 2           2             2   13     1       0.6478834252E-03       2   13    1         0.3673744895E-01      0.7684160401E-01
          0                 3           1             2   13     1      -0.5522839769E-04       2   13    1        -0.3159832737E-02      0.6751594235E-02

    ------------------------------------------------
       NWT REQUIRED            3 OUTER ITERATIONS 
       AND A TOTAL OF          5 INNER ITERATIONS.
    ------------------------------------------------

 NO OUTPUT CONTROL FOR STRESS PERIOD   18   TIME STEP   25
 
 SOLVING FOR HEAD 
                                                   Max.-Head-Change                         Max.-Flux-Residual
  Residual-Control   Outer-Iter.   Inner-Iter.     Column Row Layer    Maximum-Head-Change  Column Row Layer    Maximum-Flux-Residual          L2-NORM 
          0                 1           2             2   13     1      -0.6314287075E-02       2   13    1        -0.3547921808E+00      0.7390174759E+00
          0                 2           2             2   13     1       0.6010716258E-03       2   13    1         0.3407787851E-01      0.7232624386E-01
          0                 3           1             2   13     1      -0.5124562857E-04       2   13    1        -0.2931502012E-02      0.6358525497E-02

    ------------------------------------------------
       NWT REQUIRED            3 OUTER ITERATIONS 
       AND A TOTAL OF          5 INNER ITERATIONS.
    ------------------------------------------------

 NO OUTPUT CONTROL FOR STRESS PERIOD   18   TIME STEP   26
 
 SOLVING FOR HEAD 
                                                   Max.-Head-Change                         Max.-Flux-Residual
  Residual-Control   Outer-Iter.   Inner-Iter.     Column Row Layer    Maximum-Head-Change  Column Row Layer    Maximum-Flux-Residual          L2-NORM 
          0                 1           2             2   13     1      -0.5858167894E-02       2   13    1        -0.3291135766E+00      0.6964375062E+00
          0                 2           2             2   13     1       0.5577207499E-03       2   13    1         0.3161516629E-01      0.6819946310E-01
          0                 3           1             2   13     1      -0.4754023950E-04       2   13    1        -0.2719088393E-02      0.5999090665E-02

    ------------------------------------------------
       NWT REQUIRED            3 OUTER ITERATIONS 
       AND A TOTAL OF          5 INNER ITERATIONS.
    ------------------------------------------------

 NO OUTPUT CONTROL FOR STRESS PERIOD   18   TIME STEP   27
 
 SOLVING FOR HEAD 
                                                   Max.-Head-Change                         Max.-Flux-Residual
  Residual-Control   Outer-Iter.   Inner-Iter.     Column Row Layer    Maximum-Head-Change  Column Row Layer    Maximum-Flux-Residual          L2-NORM 
          0                 1           2             2   13     1      -0.5435828477E-02       2   13    1        -0.3053392053E+00      0.6575343897E+00
          0                 2           2             2   13     1       0.5175781853E-03       2   13    1         0.2933497828E-01      0.6442994606E-01
          0                 3           1             2   13     1      -0.4411890955E-04       2   13    1        -0.2522986558E-02      0.5671473587E-02

    ------------------------------------------------
       NWT REQUIRED            3 OUTER ITERATIONS 
       AND A TOTAL OF          5 INNER ITERATIONS.
    ------------------------------------------------

 NO OUTPUT CONTROL FOR STRESS PERIOD   18   TIME STEP   28
 
 SOLVING FOR HEAD 
                                                   Max.-Head-Change                         Max.-Flux-Residual
  Residual-Control   Outer-Iter.   Inner-Iter.     Column Row Layer    Maximum-Head-Change  Column Row Layer    Maximum-Flux-Residual          L2-NORM 
          0                 1           2             1    1     1       0.2475068162E-02       4   13    1         0.1356314236E+00      0.3595959208E+00
          0                 2           2             7   13     1      -0.1465167547E-02       7   13    1        -0.7996896028E-01      0.8691042090E-01
          0                 3           2             7   13     1       0.1306383105E-03       7   13    1         0.7195640885E-02      0.7813934453E-02
          0                 4           1             7   13     1      -0.1036684278E-04       7   13    1        -0.5762440755E-03      0.6251584528E-03

    ------------------------------------------------
       NWT REQUIRED            4 OUTER ITERATIONS 
       AND A TOTAL OF          7 INNER ITERATIONS.
    ------------------------------------------------

 NO OUTPUT CONTROL FOR STRESS PERIOD   18   TIME STEP   29
 
 SOLVING FOR HEAD 
                                                   Max.-Head-Change                         Max.-Flux-Residual
  Residual-Control   Outer-Iter.   Inner-Iter.     Column Row Layer    Maximum-Head-Change  Column Row Layer    Maximum-Flux-Residual          L2-NORM 
          0                 1           2             4   13     1       0.1103653995E-01       4   13    1         0.6383494610E+00      0.1103420298E+01
          0                 2           2             4   13     1      -0.1082694843E-02       4   13    1        -0.6320846201E-01      0.1075356235E+00
          0                 3           1             4   13     1       0.9550139539E-04       4   13    1         0.5627608602E-02      0.9412962182E-02

    ------------------------------------------------
       NWT REQUIRED            3 OUTER ITERATIONS 
       AND A TOTAL OF          5 INNER ITERATIONS.
    ------------------------------------------------

 NO OUTPUT CONTROL FOR STRESS PERIOD   18   TIME STEP   30



 STREAM LISTING     PERIOD     18   STEP       30

 LAYER ROW COL. STREAM  RCH.  FLOW INTO     FLOW TO   FLOW OUT OF   OVRLND.     DIRECT     STREAM       STREAM     STREAM     STREAM   STREAMBED  STREAMBED
                SEG.NO.  NO.  STRM. RCH.    AQUIFER    STRM. RCH.    RUNOFF     PRECIP       ET          HEAD       DEPTH      WIDTH   CONDCTNC.   GRADIENT

   1    1    1     1     1    5.4945E+01  3.5407E-01   5.4591E+01  0.000E+00  0.000E+00  0.000E+00  1.09451E+03  1.462E+00  1.763E+01  7.934E-02  1.487E+00
   1    2    2     1     2    5.4591E+01  5.4824E-01   5.4043E+01  0.000E+00  0.000E+00  0.000E+00  1.08952E+03  1.457E+00  1.757E+01  1.230E-01  1.486E+00
   1    3    3     1     3    5.4043E+01  4.6747E-01   5.3575E+01  0.000E+00  0.000E+00  0.000E+00  1.08387E+03  1.450E+00  1.751E+01  1.050E-01  1.483E+00
   1    3    4     1     4    5.3575E+01  4.3039E-01   5.3145E+01  0.000E+00  0.000E+00  0.000E+00  1.07885E+03  1.444E+00  1.745E+01  9.684E-02  1.481E+00
   1    4    5     2     1    5.1145E+01  3.7840E-01   5.0767E+01  0.000E+00  0.000E+00  0.000E+00  1.07379E+03  1.851E+00  1.200E+01  7.800E-02  1.617E+00
   1    5    6     2     2    5.0767E+01  2.9064E-01   5.0476E+01  0.000E+00  0.000E+00  0.000E+00  1.06835E+03  1.844E+00  1.200E+01  6.000E-02  1.615E+00
   1    6    6     2     3    5.0476E+01  2.9025E-01   5.0186E+01  0.000E+00  0.000E+00  0.000E+00  1.06363E+03  1.838E+00  1.200E+01  6.000E-02  1.613E+00
   1    7    6     2     4    5.0186E+01  2.8987E-01   4.9896E+01  0.000E+00  0.000E+00  0.000E+00  1.05891E+03  1.831E+00  1.200E+01  6.000E-02  1.610E+00
   1    8    6     2     5    4.9896E+01  2.8949E-01   4.9606E+01  0.000E+00  0.000E+00  0.000E+00  1.05418E+03  1.825E+00  1.200E+01  6.000E-02  1.608E+00
   1    3    5     3     1    2.0000E+00  2.8252E-01   1.7175E+00  0.000E+00  0.000E+00  0.000E+00  1.07555E+03  1.909E+00  9.636E+00  7.227E-02  1.955E+00
   1    3    6     3     2    1.7175E+00  2.4905E-01   1.4684E+00  0.000E+00  0.000E+00  0.000E+00  1.07264E+03  1.727E+00  8.909E+00  6.682E-02  1.864E+00
   1    3    7     3     3    1.4684E+00  1.9718E-01   1.2712E+00  0.000E+00  0.000E+00  0.000E+00  1.06987E+03  1.555E+00  8.218E+00  5.547E-02  1.777E+00
   1    4    8     3     4    1.2712E+00  2.2567E-01   1.0456E+00  0.000E+00  0.000E+00  0.000E+00  1.06682E+03  1.364E+00  7.455E+00  6.709E-02  1.682E+00
   1    5    8     3     5    1.0456E+00  1.5790E-01   8.8768E-01  0.000E+00  0.000E+00  0.000E+00  1.06362E+03  1.164E+00  6.655E+00  4.991E-02  1.582E+00
   1    6    8     3     6    8.8768E-01  5.5980E-02   8.3170E-01  0.000E+00  0.000E+00  0.000E+00  1.06158E+03  1.036E+00  6.145E+00  1.844E-02  1.518E+00
   1    5   10     4     1    1.0000E+01  9.0919E-02   9.9091E+00  0.000E+00  0.000E+00  0.000E+00  1.07836E+03  6.368E-01  1.000E+01  2.500E-02  1.212E+00
   1    5    9     4     2    9.9091E+00  1.8158E-01   9.7275E+00  0.000E+00  0.000E+00  0.000E+00  1.07154E+03  6.315E-01  1.000E+01  5.000E-02  1.211E+00
   1    6    8     4     3    9.7275E+00  1.2689E-01   9.6006E+00  0.000E+00  0.000E+00  0.000E+00  1.06381E+03  6.256E-01  1.000E+01  3.500E-02  1.209E+00
   1    6    8     5     1    1.0432E+01  2.2686E-01   1.0205E+01  0.000E+00  0.000E+00  0.000E+00  1.05868E+03  6.790E-01  1.542E+01  6.166E-02  1.226E+00
   1    7    7     5     2    1.0205E+01  2.7894E-01   9.9265E+00  0.000E+00  0.000E+00  0.000E+00  1.05417E+03  6.732E-01  1.519E+01  7.594E-02  1.224E+00
   1    8    7     5     3    9.9265E+00  1.9221E-01   9.7343E+00  0.000E+00  0.000E+00  0.000E+00  1.04992E+03  6.676E-01  1.497E+01  5.241E-02  1.223E+00
   1    8    6     5     4    9.7343E+00  1.3577E-01   9.5985E+00  0.000E+00  0.000E+00  0.000E+00  1.04691E+03  6.637E-01  1.482E+01  3.706E-02  1.221E+00
   1    9    6     6     1    5.9205E+01  3.0271E-01   5.8902E+01  0.000E+00  0.000E+00  0.000E+00  1.04477E+03  2.045E+00  1.200E+01  6.000E-02  1.682E+00
   1   10    7     6     2    5.8902E+01  3.0233E-01   5.8600E+01  0.000E+00  0.000E+00  0.000E+00  1.04022E+03  2.039E+00  1.200E+01  6.000E-02  1.680E+00
   1   11    7     6     3    5.8600E+01  3.0195E-01   5.8298E+01  0.000E+00  0.000E+00  0.000E+00  1.03567E+03  2.033E+00  1.200E+01  6.000E-02  1.678E+00
   1   12    7     6     4    5.8298E+01  3.0157E-01   5.7996E+01  0.000E+00  0.000E+00  0.000E+00  1.03112E+03  2.026E+00  1.200E+01  6.000E-02  1.675E+00
   1   13    7     6     5    5.7996E+01  2.0297E-02   5.7976E+01  0.000E+00  0.000E+00  0.000E+00  1.02793E+03  2.023E+00  1.200E+01  2.400E-02  2.819E-01
   1   14    9     7     1    1.5000E+02  1.3410E+00   1.4866E+02  0.000E+00  0.000E+00  0.000E+00  1.03987E+03  2.288E+00  5.529E+01  5.593E-01  7.992E-01
   1   13    8     7     2    1.4866E+02  1.8366E+00   1.4682E+02  0.000E+00  0.000E+00  0.000E+00  1.03478E+03  2.279E+00  5.526E+01  6.148E-01  9.958E-01
   1   13    7     7     3    1.4682E+02  1.4540E+00   1.4537E+02  0.000E+00  0.000E+00  0.000E+00  1.02969E+03  2.270E+00  5.522E+01  5.585E-01  8.679E-01
   1   13    6     8     1    2.0334E+02  1.0511E+00   2.0229E+02  0.000E+00  0.000E+00  0.000E+00  1.02503E+03  3.154E+00  4.574E+01  4.661E-01  7.518E-01
   1   13    5     8     2    2.0229E+02  2.6109E-01   2.0203E+02  0.000E+00  0.000E+00  0.000E+00  1.01878E+03  3.150E+00  4.568E+01  4.655E-01  1.870E-01
   1   13    4     8     3    2.0203E+02 -1.7731E+00   2.0381E+02  0.000E+00  0.000E+00  0.000E+00  1.01253E+03  3.155E+00  4.574E+01  4.662E+00 -1.268E-01
   1   13    3     8     4    2.0381E+02 -3.0147E+00   2.0682E+02  0.000E+00  0.000E+00  0.000E+00  1.00629E+03  3.169E+00  4.595E+01  4.682E+00 -2.146E-01
   1   13    2     8     5    2.0682E+02 -1.9481E+00   2.0877E+02  0.000E+00  0.000E+00  0.000E+00  1.00006E+03  3.183E+00  4.615E+01  4.703E+00 -1.381E-01
   1   13    1     8     6    2.0877E+02 -1.5836E+00   2.1035E+02  0.000E+00  0.000E+00  0.000E+00  9.95068E+02  3.193E+00  4.630E+01  2.831E+00 -1.865E-01
   1    6    8     9     1    0.0000E+00  0.0000E+00   0.0000E+00  0.000E+00  0.000E+00  0.000E+00  1.07850E+03  0.000E+00  4.000E+00  0.000E+00  1.000E+00





UNSATURATED ZONE PACKAGE VOLUMETRIC BUDGET FOR  TIME STEP    30 STRESS PERIOD   18
  ------------------------------------------------------------------------------



     CUMULATIVE VOLUMES      L**3       RATES FOR THIS TIME STEP      L**3/T
     ------------------                 ------------------------

           IN:                                      IN:
           ---                                      ---
        INFILTRATION =    71223642.1978          INFILTRATION =           0.7912

          OUT:                                     OUT:
          ----                                     ----
              UZF ET =    52726618.8704                UZF ET =           0.9820
        UZF RECHARGE =       73224.0000          UZF RECHARGE =       0.0000E+00

            IN - OUT =    18423799.3273              IN - OUT =          -0.1909

          STORAGE:                                 STORAGE:
          --------                                 --------
      STORAGE CHANGE =    18423458.3931        STORAGE CHANGE =          -0.1909

 PERCENT DISCREPANCY IS DIFFERENCE BETWEEN IN-OUT MINUS CHANGE IN STORAGE
 DIVIDED BY THE AVERAGE OF IN AND OUT TIMES 100

 PERCENT DISCREPANCY =           0.00     PERCENT DISCREPANCY =          -0.00






1
  VOLUMETRIC BUDGET FOR ENTIRE MODEL AT END OF TIME STEP   30, STRESS PERIOD  18
  ------------------------------------------------------------------------------

     CUMULATIVE VOLUMES      L**3       RATES FOR THIS TIME STEP      L**3/T
     ------------------                 ------------------------

           IN:                                      IN:
           ---                                      ---
    AWU WELLS            =    71150408.0000      AWU WELLS            =           0.7912
    DIVERSION SEGMENTS   =           0.0000      DIVERSION SEGMENTS   =           0.0000
    GW IRRIGATION        =           0.0000      GW IRRIGATION        =           0.0000
    SW IRRIGATION        =           0.0000      SW IRRIGATION        =           0.0000
    EFFICIENCY FACTOR GW =           0.0000      EFFICIENCY FACTOR GW =           0.0000
    EFFICIENCY FACTOR SW =           0.0000      EFFICIENCY FACTOR SW =           0.0000

                TOTAL IN =    71150408.0000                  TOTAL IN =           0.7912

          OUT:                                     OUT:
          ----                                     ----
    AWU WELLS            =           0.0000      AWU WELLS            =           0.0000
    DIVERSION SEGMENTS   =           0.0000      DIVERSION SEGMENTS   =           0.0000
    GW IRRIGATION        =    71150408.0000      GW IRRIGATION        =           0.7912
    SW IRRIGATION        =           0.0000      SW IRRIGATION        =           0.0000
    EFFICIENCY FACTOR GW =           0.0000      EFFICIENCY FACTOR GW =           0.0000
    EFFICIENCY FACTOR SW =           0.0000      EFFICIENCY FACTOR SW =           0.0000

               TOTAL OUT =    71150408.0000                 TOTAL OUT =           0.7912

                IN - OUT =           0.0000                  IN - OUT =           0.0000

     PERCENT DISCREPANCY =           0.00         PERCENT DISCREPANCY =           0.00



1
  VOLUMETRIC BUDGET FOR ENTIRE MODEL AT END OF TIME STEP   30, STRESS PERIOD  18
  ------------------------------------------------------------------------------

     CUMULATIVE VOLUMES      L**3       RATES FOR THIS TIME STEP      L**3/T
     ------------------                 ------------------------

           IN:                                      IN:
           ---                                      ---
             STORAGE     =   137046832.0000               STORAGE     =           0.7845
       CONSTANT HEAD     =           0.0000         CONSTANT HEAD     =           0.0000
     HEAD DEP BOUNDS     =    12799214.0000       HEAD DEP BOUNDS     =           0.2861
      STREAM LEAKAGE     =   529115392.0000        STREAM LEAKAGE     =          12.9130
        UZF RECHARGE     =       73223.9531          UZF RECHARGE     =           0.0000
               GW ET     =           0.0000                 GW ET     =           0.0000
     SURFACE LEAKAGE     =           0.0000       SURFACE LEAKAGE     =           0.0000
    AWU WELLS            =           0.0000      AWU WELLS            =           0.0000

                TOTAL IN =   679034624.0000                  TOTAL IN =          13.9836

          OUT:                                     OUT:
          ----                                     ----
             STORAGE     =    95457872.0000               STORAGE     =           3.5588
       CONSTANT HEAD     =           0.0000         CONSTANT HEAD     =           0.0000
     HEAD DEP BOUNDS     =    12871323.0000       HEAD DEP BOUNDS     =           0.2898
      STREAM LEAKAGE     =   441327136.0000        STREAM LEAKAGE     =           8.3196
        UZF RECHARGE     =           0.0000          UZF RECHARGE     =           0.0000
               GW ET     =    58223740.0000                 GW ET     =           1.0261
     SURFACE LEAKAGE     =           0.0000       SURFACE LEAKAGE     =           0.0000
    AWU WELLS            =    71150408.0000      AWU WELLS            =           0.7912

               TOTAL OUT =   679030464.0000                 TOTAL OUT =          13.9856

                IN - OUT =        4160.0000                  IN - OUT =      -1.9894E-03

     PERCENT DISCREPANCY =           0.00         PERCENT DISCREPANCY =          -0.01






         TIME SUMMARY AT END OF TIME STEP   30 IN STRESS PERIOD   18
                    SECONDS     MINUTES      HOURS       DAYS        YEARS
                    -----------------------------------------------------------
   TIME STEP LENGTH  87600.      1460.0      24.333      1.0139     2.77588E-03
 STRESS PERIOD TIME 2.62800E+06  43800.      730.00      30.417     8.32763E-02
         TOTAL TIME 4.47624E+07 7.46040E+05  12434.      518.08      1.4184    
1
1
                            STRESS PERIOD NO.   19, LENGTH =   2628000.    
                            -----------------------------------------------

                              NUMBER OF TIME STEPS =    30

                               MULTIPLIER FOR DELT =     1.000

                            INITIAL TIME STEP SIZE =   87600.00    

 REUSING NON-PARAMETER GHB CELLS FROM LAST STRESS PERIOD

      2 GHB CELLS

 REUSING STREAM SEGMENT DATA FROM LAST STRESS PERIOD



            AREAL INFILTRATION RATE
 READING ON UNIT   19 WITH FORMAT: (10F4.0)            

            1           2           3           4           5           6           7           8           9          10
 ........................................................................................................................
   1    0.000       0.000       0.000       0.000       0.000       0.000       0.000       0.000       0.000       0.000    
   2    0.000       0.000       0.000       0.000       0.000       0.000       0.000       0.000       0.000       0.000    
   3    0.000       0.000       0.000       0.000       0.000       0.000       0.000       0.000       0.000       0.000    
   4    0.000       0.000       0.000       0.000       0.000       0.000       0.000       0.000       0.000       0.000    
   5    0.000       0.000       0.000       0.000       0.000       0.000       0.000       0.000       0.000       0.000    
   6    0.000       0.000       0.000       0.000       0.000       0.000       0.000       0.000       0.000       0.000    
   7    0.000       0.000       0.000       0.000       0.000       0.000       0.000       0.000       0.000       0.000    
   8    0.000       0.000       0.000       0.000       0.000       0.000       0.000       0.000       0.000       0.000    
   9    0.000       0.000       0.000       0.000       0.000       0.000       0.000       0.000       0.000       0.000    
  10    0.000       0.000       0.000       0.000       0.000       0.000       0.000       0.000       0.000       0.000    
  11    0.000       0.000       0.000       0.000       0.000       0.000       0.000       0.000       0.000       0.000    
  12    0.000       0.000       0.000       0.000       0.000       0.000       0.000       0.000       0.000       0.000    
  13    0.000       0.000       0.000       0.000       0.000       0.000       0.000       0.000       0.000       0.000    
  14    0.000       0.000       0.000       0.000       0.000       0.000       0.000       0.000       0.000       0.000    
  15    0.000       0.000       0.000       0.000       0.000       0.000       0.000       0.000       0.000       0.000    

                  ET RATE =  3.000000E-08

 USING ET EXTINCTION DEPTH FROM PREVIOUS STRESS PERIOD. CURRENT PERIOD IS:      19

 USING EXTINCTION WATER CONTENT FROM PREVIOUS STRESS PERIOD. CURRENT PERIOD IS:      19

 PROCESSING AWU STRESS PERIOD DATA

 READING AWU STRESS PERIOD DATA

 READING IRRIGATION WELL

 END PROCESSING AWU STRESS PERIOD DATA OPTIONS
 
 SOLVING FOR HEAD 
                                                   Max.-Head-Change                         Max.-Flux-Residual
  Residual-Control   Outer-Iter.   Inner-Iter.     Column Row Layer    Maximum-Head-Change  Column Row Layer    Maximum-Flux-Residual          L2-NORM 
          0                 1           2             2   13     1       0.8512384818E-02       2   13    1         0.4873352950E+00      0.1137142060E+01
          0                 2           2             2   13     1      -0.8195463002E-03       2   13    1        -0.4735896742E-01      0.1130640729E+00
          0                 3           1             2   13     1       0.7079150235E-04       2   13    1         0.4129203256E-02      0.1011517759E-01

    ------------------------------------------------
       NWT REQUIRED            3 OUTER ITERATIONS 
       AND A TOTAL OF          5 INNER ITERATIONS.
    ------------------------------------------------

 OUTPUT CONTROL FOR STRESS PERIOD   19   TIME STEP    1
    PRINT BUDGET
    SAVE BUDGET
 UBDSV1 SAVING "         STORAGE" ON UNIT 102 AT TIME STEP     1, STRESS PERIOD  19
 UBDSV2 SAVING "   CONSTANT HEAD" ON UNIT 102 AT TIME STEP     1, STRESS PERIOD  19
 UBDSV1 SAVING "FLOW RIGHT FACE " ON UNIT 102 AT TIME STEP     1, STRESS PERIOD  19
 UBDSV1 SAVING "FLOW FRONT FACE " ON UNIT 102 AT TIME STEP     1, STRESS PERIOD  19

  HEAD DEP BOUNDS   PERIOD   19   STEP     1
 BOUNDARY      1   LAYER   1   ROW    13   COL     1   RATE   -0.289771    
 BOUNDARY      2   LAYER   1   ROW    14   COL     9   RATE    0.286112    



 STREAM LISTING     PERIOD     19   STEP        1

 LAYER ROW COL. STREAM  RCH.  FLOW INTO     FLOW TO   FLOW OUT OF   OVRLND.     DIRECT     STREAM       STREAM     STREAM     STREAM   STREAMBED  STREAMBED
                SEG.NO.  NO.  STRM. RCH.    AQUIFER    STRM. RCH.    RUNOFF     PRECIP       ET          HEAD       DEPTH      WIDTH   CONDCTNC.   GRADIENT

   1    1    1     1     1    6.3000E+01  3.8236E-01   6.2618E+01  0.000E+00  0.000E+00  0.000E+00  1.09461E+03  1.562E+00  1.863E+01  8.382E-02  1.521E+00
   1    2    2     1     2    6.2618E+01  5.9218E-01   6.2025E+01  0.000E+00  0.000E+00  0.000E+00  1.08961E+03  1.556E+00  1.857E+01  1.300E-01  1.519E+00
   1    3    3     1     3    6.2025E+01  5.0506E-01   6.1520E+01  0.000E+00  0.000E+00  0.000E+00  1.08397E+03  1.549E+00  1.850E+01  1.110E-01  1.516E+00
   1    3    4     1     4    6.1520E+01  4.6510E-01   6.1055E+01  0.000E+00  0.000E+00  0.000E+00  1.07895E+03  1.543E+00  1.845E+01  1.024E-01  1.514E+00
   1    4    5     2     1    5.9055E+01  3.9145E-01   5.8664E+01  0.000E+00  0.000E+00  0.000E+00  1.07395E+03  2.019E+00  1.200E+01  7.800E-02  1.673E+00
   1    5    6     2     2    5.8664E+01  3.0068E-01   5.8363E+01  0.000E+00  0.000E+00  0.000E+00  1.06852E+03  2.011E+00  1.200E+01  6.000E-02  1.670E+00
   1    6    6     2     3    5.8363E+01  3.0031E-01   5.8063E+01  0.000E+00  0.000E+00  0.000E+00  1.06380E+03  2.005E+00  1.200E+01  6.000E-02  1.668E+00
   1    7    6     2     4    5.8063E+01  2.9994E-01   5.7763E+01  0.000E+00  0.000E+00  0.000E+00  1.05907E+03  1.999E+00  1.200E+01  6.000E-02  1.666E+00
   1    8    6     2     5    5.7763E+01  2.9957E-01   5.7463E+01  0.000E+00  0.000E+00  0.000E+00  1.05435E+03  1.993E+00  1.200E+01  6.000E-02  1.664E+00
   1    3    5     3     1    2.0000E+00  2.8252E-01   1.7175E+00  0.000E+00  0.000E+00  0.000E+00  1.07555E+03  1.909E+00  9.636E+00  7.227E-02  1.955E+00
   1    3    6     3     2    1.7175E+00  2.4905E-01   1.4684E+00  0.000E+00  0.000E+00  0.000E+00  1.07264E+03  1.727E+00  8.909E+00  6.682E-02  1.864E+00
   1    3    7     3     3    1.4684E+00  1.9718E-01   1.2712E+00  0.000E+00  0.000E+00  0.000E+00  1.06987E+03  1.555E+00  8.218E+00  5.547E-02  1.777E+00
   1    4    8     3     4    1.2712E+00  2.2567E-01   1.0456E+00  0.000E+00  0.000E+00  0.000E+00  1.06682E+03  1.364E+00  7.455E+00  6.709E-02  1.682E+00
   1    5    8     3     5    1.0456E+00  1.5790E-01   8.8768E-01  0.000E+00  0.000E+00  0.000E+00  1.06362E+03  1.164E+00  6.655E+00  4.991E-02  1.582E+00
   1    6    8     3     6    8.8768E-01  5.5980E-02   8.3170E-01  0.000E+00  0.000E+00  0.000E+00  1.06158E+03  1.036E+00  6.145E+00  1.844E-02  1.518E+00
   1    5   10     4     1    1.0000E+01  9.0919E-02   9.9091E+00  0.000E+00  0.000E+00  0.000E+00  1.07836E+03  6.368E-01  1.000E+01  2.500E-02  1.212E+00
   1    5    9     4     2    9.9091E+00  1.8158E-01   9.7275E+00  0.000E+00  0.000E+00  0.000E+00  1.07154E+03  6.315E-01  1.000E+01  5.000E-02  1.211E+00
   1    6    8     4     3    9.7275E+00  1.2689E-01   9.6006E+00  0.000E+00  0.000E+00  0.000E+00  1.06381E+03  6.256E-01  1.000E+01  3.500E-02  1.209E+00
   1    6    8     5     1    1.0432E+01  2.2686E-01   1.0205E+01  0.000E+00  0.000E+00  0.000E+00  1.05868E+03  6.790E-01  1.542E+01  6.166E-02  1.226E+00
   1    7    7     5     2    1.0205E+01  2.7894E-01   9.9265E+00  0.000E+00  0.000E+00  0.000E+00  1.05417E+03  6.732E-01  1.519E+01  7.594E-02  1.224E+00
   1    8    7     5     3    9.9265E+00  1.9221E-01   9.7343E+00  0.000E+00  0.000E+00  0.000E+00  1.04992E+03  6.676E-01  1.497E+01  5.241E-02  1.223E+00
   1    8    6     5     4    9.7343E+00  1.3577E-01   9.5985E+00  0.000E+00  0.000E+00  0.000E+00  1.04691E+03  6.637E-01  1.482E+01  3.706E-02  1.221E+00
   1    9    6     6     1    6.7062E+01  3.1225E-01   6.6750E+01  0.000E+00  0.000E+00  0.000E+00  1.04493E+03  2.204E+00  1.200E+01  6.000E-02  1.735E+00
   1   10    7     6     2    6.6750E+01  3.1188E-01   6.6438E+01  0.000E+00  0.000E+00  0.000E+00  1.04038E+03  2.198E+00  1.200E+01  6.000E-02  1.733E+00
   1   11    7     6     3    6.6438E+01  3.1151E-01   6.6126E+01  0.000E+00  0.000E+00  0.000E+00  1.03583E+03  2.192E+00  1.200E+01  6.000E-02  1.731E+00
   1   12    7     6     4    6.6126E+01  3.1114E-01   6.5815E+01  0.000E+00  0.000E+00  0.000E+00  1.03128E+03  2.186E+00  1.200E+01  6.000E-02  1.729E+00
   1   13    7     6     5    6.5815E+01  2.4138E-02   6.5791E+01  0.000E+00  0.000E+00  0.000E+00  1.02809E+03  2.182E+00  1.200E+01  2.400E-02  3.353E-01
   1   14    9     7     1    1.5000E+02  1.3410E+00   1.4866E+02  0.000E+00  0.000E+00  0.000E+00  1.03987E+03  2.288E+00  5.529E+01  5.593E-01  7.992E-01
   1   13    8     7     2    1.4866E+02  1.8366E+00   1.4682E+02  0.000E+00  0.000E+00  0.000E+00  1.03478E+03  2.279E+00  5.526E+01  6.148E-01  9.958E-01
   1   13    7     7     3    1.4682E+02  1.4543E+00   1.4537E+02  0.000E+00  0.000E+00  0.000E+00  1.02969E+03  2.270E+00  5.522E+01  5.585E-01  8.681E-01
   1   13    6     8     1    2.1116E+02  1.0876E+00   2.1007E+02  0.000E+00  0.000E+00  0.000E+00  1.02507E+03  3.199E+00  4.639E+01  4.727E-01  7.669E-01
   1   13    5     8     2    2.1007E+02  2.8871E-01   2.0978E+02  0.000E+00  0.000E+00  0.000E+00  1.01882E+03  3.195E+00  4.633E+01  4.721E-01  2.038E-01
   1   13    4     8     3    2.0978E+02 -1.6122E+00   2.1139E+02  0.000E+00  0.000E+00  0.000E+00  1.01257E+03  3.199E+00  4.639E+01  4.727E+00 -1.137E-01
   1   13    3     8     4    2.1139E+02 -2.8676E+00   2.1426E+02  0.000E+00  0.000E+00  0.000E+00  1.00634E+03  3.212E+00  4.657E+01  4.746E+00 -2.014E-01
   1   13    2     8     5    2.1426E+02 -1.8111E+00   2.1607E+02  0.000E+00  0.000E+00  0.000E+00  1.00010E+03  3.225E+00  4.676E+01  4.765E+00 -1.267E-01
   1   13    1     8     6    2.1607E+02 -1.4807E+00   2.1755E+02  0.000E+00  0.000E+00  0.000E+00  9.95109E+02  3.234E+00  4.690E+01  2.867E+00 -1.721E-01
   1    6    8     9     1    0.0000E+00  0.0000E+00   0.0000E+00  0.000E+00  0.000E+00  0.000E+00  1.07850E+03  0.000E+00  4.000E+00  0.000E+00  1.000E+00



 UBDSV3 SAVING "           GW ET" ON UNIT  61 AT TIME STEP     1, STRESS PERIOD  19
 UBDSV3 SAVING "    UZF RECHARGE" ON UNIT  61 AT TIME STEP     1, STRESS PERIOD  19
 UBDSV3 SAVING " SURFACE LEAKAGE" ON UNIT  61 AT TIME STEP     1, STRESS PERIOD  19
 UBDSV3 SAVING "       HORT+DUNN" ON UNIT  61 AT TIME STEP     1, STRESS PERIOD  19
 UBDSV3 SAVING "  STORAGE CHANGE" ON UNIT  61 AT TIME STEP     1, STRESS PERIOD  19


UNSATURATED ZONE PACKAGE VOLUMETRIC BUDGET FOR  TIME STEP     1 STRESS PERIOD   19
  ------------------------------------------------------------------------------



     CUMULATIVE VOLUMES      L**3       RATES FOR THIS TIME STEP      L**3/T
     ------------------                 ------------------------

           IN:                                      IN:
           ---                                      ---
        INFILTRATION =    71428596.7837          INFILTRATION =           2.3397

          OUT:                                     OUT:
          ----                                     ----
              UZF ET =    52985973.6985                UZF ET =           2.9607
        UZF RECHARGE =       73224.0000          UZF RECHARGE =       0.0000E+00

            IN - OUT =    18369399.0851              IN - OUT =          -0.6210

          STORAGE:                                 STORAGE:
          --------                                 --------
      STORAGE CHANGE =    18369058.1557        STORAGE CHANGE =          -0.6210

 PERCENT DISCREPANCY IS DIFFERENCE BETWEEN IN-OUT MINUS CHANGE IN STORAGE
 DIVIDED BY THE AVERAGE OF IN AND OUT TIMES 100

 PERCENT DISCREPANCY =           0.00     PERCENT DISCREPANCY =           0.00






 

 AWU WELLS                PERIOD   19   STEP   1
 AWU WELL      1   LAYER   1   ROW     6   COL     4   RATE   -0.389944    
 AWU WELL      2   LAYER   1   ROW     6   COL     5   RATE   -0.389944    
 AWU WELL      3   LAYER   1   ROW     7   COL     4   RATE   -0.389944    
 AWU WELL      4   LAYER   1   ROW     7   COL     5   RATE   -0.389944    
 AWU WELL      5   LAYER   1   ROW     8   COL     4   RATE   -0.389944    
 AWU WELL      6   LAYER   1   ROW     8   COL     5   RATE   -0.389944    
 
 

 GW IRRIGATION            PERIOD   19   STEP   1
 AWU WELL      1   ROW     6   COL     4   RATE    0.389944    
 AWU WELL      2   ROW     6   COL     5   RATE    0.389944    
 AWU WELL      3   ROW     7   COL     4   RATE    0.389944    
 AWU WELL      4   ROW     7   COL     5   RATE    0.389944    
 AWU WELL      5   ROW     8   COL     4   RATE    0.389944    
 AWU WELL      6   ROW     8   COL     5   RATE    0.389944    
 
1
  VOLUMETRIC BUDGET FOR ENTIRE MODEL AT END OF TIME STEP    1, STRESS PERIOD  19
  ------------------------------------------------------------------------------

     CUMULATIVE VOLUMES      L**3       RATES FOR THIS TIME STEP      L**3/T
     ------------------                 ------------------------

           IN:                                      IN:
           ---                                      ---
    AWU WELLS            =    71355360.0000      AWU WELLS            =           2.3397
    DIVERSION SEGMENTS   =           0.0000      DIVERSION SEGMENTS   =           0.0000
    GW IRRIGATION        =           0.0000      GW IRRIGATION        =           0.0000
    SW IRRIGATION        =           0.0000      SW IRRIGATION        =           0.0000
    EFFICIENCY FACTOR GW =           0.0000      EFFICIENCY FACTOR GW =           0.0000
    EFFICIENCY FACTOR SW =           0.0000      EFFICIENCY FACTOR SW =           0.0000

                TOTAL IN =    71355360.0000                  TOTAL IN =           2.3397

          OUT:                                     OUT:
          ----                                     ----
    AWU WELLS            =           0.0000      AWU WELLS            =           0.0000
    DIVERSION SEGMENTS   =           0.0000      DIVERSION SEGMENTS   =           0.0000
    GW IRRIGATION        =    71355360.0000      GW IRRIGATION        =           2.3397
    SW IRRIGATION        =           0.0000      SW IRRIGATION        =           0.0000
    EFFICIENCY FACTOR GW =           0.0000      EFFICIENCY FACTOR GW =           0.0000
    EFFICIENCY FACTOR SW =           0.0000      EFFICIENCY FACTOR SW =           0.0000

               TOTAL OUT =    71355360.0000                 TOTAL OUT =           2.3397

                IN - OUT =           0.0000                  IN - OUT =           0.0000

     PERCENT DISCREPANCY =           0.00         PERCENT DISCREPANCY =           0.00



1
  VOLUMETRIC BUDGET FOR ENTIRE MODEL AT END OF TIME STEP    1, STRESS PERIOD  19
  ------------------------------------------------------------------------------

     CUMULATIVE VOLUMES      L**3       RATES FOR THIS TIME STEP      L**3/T
     ------------------                 ------------------------

           IN:                                      IN:
           ---                                      ---
             STORAGE     =   137291152.0000               STORAGE     =           2.7890
       CONSTANT HEAD     =           0.0000         CONSTANT HEAD     =           0.0000
     HEAD DEP BOUNDS     =    12824277.0000       HEAD DEP BOUNDS     =           0.2861
      STREAM LEAKAGE     =   530273216.0000        STREAM LEAKAGE     =          13.2172
        UZF RECHARGE     =       73223.9531          UZF RECHARGE     =           0.0000
               GW ET     =           0.0000                 GW ET     =           0.0000
     SURFACE LEAKAGE     =           0.0000       SURFACE LEAKAGE     =           0.0000
    AWU WELLS            =           0.0000      AWU WELLS            =           0.0000

                TOTAL IN =   680461824.0000                  TOTAL IN =          16.2923

          OUT:                                     OUT:
          ----                                     ----
             STORAGE     =    95704192.0000               STORAGE     =           2.8119
       CONSTANT HEAD     =           0.0000         CONSTANT HEAD     =           0.0000
     HEAD DEP BOUNDS     =    12896707.0000       HEAD DEP BOUNDS     =           0.2898
      STREAM LEAKAGE     =   442007936.0000        STREAM LEAKAGE     =           7.7716
        UZF RECHARGE     =           0.0000          UZF RECHARGE     =           0.0000
               GW ET     =    58493496.0000                 GW ET     =           3.0794
     SURFACE LEAKAGE     =           0.0000       SURFACE LEAKAGE     =           0.0000
    AWU WELLS            =    71355360.0000      AWU WELLS            =           2.3397

               TOTAL OUT =   680457728.0000                 TOTAL OUT =          16.2924

                IN - OUT =        4096.0000                  IN - OUT =      -9.5367E-06

     PERCENT DISCREPANCY =           0.00         PERCENT DISCREPANCY =          -0.00






         TIME SUMMARY AT END OF TIME STEP    1 IN STRESS PERIOD   19
                    SECONDS     MINUTES      HOURS       DAYS        YEARS
                    -----------------------------------------------------------
   TIME STEP LENGTH  87600.      1460.0      24.333      1.0139     2.77588E-03
 STRESS PERIOD TIME  87600.      1460.0      24.333      1.0139     2.77588E-03
         TOTAL TIME 4.48500E+07 7.47500E+05  12458.      519.10      1.4212    
1
 
 SOLVING FOR HEAD 
                                                   Max.-Head-Change                         Max.-Flux-Residual
  Residual-Control   Outer-Iter.   Inner-Iter.     Column Row Layer    Maximum-Head-Change  Column Row Layer    Maximum-Flux-Residual          L2-NORM 
          0                 1           2             2   13     1       0.7742558795E-02       2   13    1         0.4432362316E+00      0.1077342894E+01
          0                 2           2             2   13     1      -0.7456927380E-03       2   13    1        -0.4308837402E-01      0.1071767656E+00
          0                 3           1             2   13     1       0.6442797607E-04       2   13    1         0.3757761259E-02      0.9593771912E-02

    ------------------------------------------------
       NWT REQUIRED            3 OUTER ITERATIONS 
       AND A TOTAL OF          5 INNER ITERATIONS.
    ------------------------------------------------

 NO OUTPUT CONTROL FOR STRESS PERIOD   19   TIME STEP    2
 
 SOLVING FOR HEAD 
                                                   Max.-Head-Change                         Max.-Flux-Residual
  Residual-Control   Outer-Iter.   Inner-Iter.     Column Row Layer    Maximum-Head-Change  Column Row Layer    Maximum-Flux-Residual          L2-NORM 
          0                 1           2             2   13     1       0.7042559439E-02       2   13    1         0.4031401467E+00      0.1023433982E+01
          0                 2           2             2   13     1      -0.6785238968E-03       2   13    1        -0.3920465304E-01      0.1018682737E+00
          0                 3           1             2   13     1       0.5866361358E-04       2   13    1         0.3421309701E-02      0.9123939496E-02

    ------------------------------------------------
       NWT REQUIRED            3 OUTER ITERATIONS 
       AND A TOTAL OF          5 INNER ITERATIONS.
    ------------------------------------------------

 NO OUTPUT CONTROL FOR STRESS PERIOD   19   TIME STEP    3
 
 SOLVING FOR HEAD 
                                                   Max.-Head-Change                         Max.-Flux-Residual
  Residual-Control   Outer-Iter.   Inner-Iter.     Column Row Layer    Maximum-Head-Change  Column Row Layer    Maximum-Flux-Residual          L2-NORM 
          0                 1           2             4    7     1      -0.1026846045E-01       4    7    1        -0.5377094588E+00      0.1455440076E+01
          0                 2           2             4    7     1       0.1017509147E-02       4    7    1         0.5377081887E-01      0.1452738056E+00
          0                 3           1             4    7     1      -0.9074411066E-04       4    7    1        -0.4839375542E-02      0.1304936515E-01

    ------------------------------------------------
       NWT REQUIRED            3 OUTER ITERATIONS 
       AND A TOTAL OF          5 INNER ITERATIONS.
    ------------------------------------------------

 NO OUTPUT CONTROL FOR STRESS PERIOD   19   TIME STEP    4
 
 SOLVING FOR HEAD 
                                                   Max.-Head-Change                         Max.-Flux-Residual
  Residual-Control   Outer-Iter.   Inner-Iter.     Column Row Layer    Maximum-Head-Change  Column Row Layer    Maximum-Flux-Residual          L2-NORM 
          0                 1           2             4    7     1      -0.1770224713E-01       4    7    1        -0.9265720693E+00      0.2306353337E+01
          0                 2           2             4    7     1       0.1754126228E-02       4    7    1         0.9265684564E-01      0.2304997051E+00
          0                 3           2             4    7     1      -0.1564375587E-03       4    7    1        -0.8339120677E-02      0.2073246902E-01
          0                 4           1             4    7     1       0.1241694604E-04       4    7    1         0.6679637047E-03      0.1659559132E-02

    ------------------------------------------------
       NWT REQUIRED            4 OUTER ITERATIONS 
       AND A TOTAL OF          7 INNER ITERATIONS.
    ------------------------------------------------

 NO OUTPUT CONTROL FOR STRESS PERIOD   19   TIME STEP    5
 
 SOLVING FOR HEAD 
                                                   Max.-Head-Change                         Max.-Flux-Residual
  Residual-Control   Outer-Iter.   Inner-Iter.     Column Row Layer    Maximum-Head-Change  Column Row Layer    Maximum-Flux-Residual          L2-NORM 
          0                 1           2             4    7     1      -0.1686844799E-01       4    7    1        -0.8833404851E+00      0.2210743262E+01
          0                 2           2             4    7     1       0.1671504586E-02       4    7    1         0.8833370437E-01      0.2207379211E+00
          0                 3           2             4    7     1      -0.1490691449E-03       4    7    1        -0.7950037760E-02      0.1983520235E-01
          0                 4           1             4    7     1       0.1183209197E-04       4    7    1         0.6367981605E-03      0.1585867299E-02

    ------------------------------------------------
       NWT REQUIRED            4 OUTER ITERATIONS 
       AND A TOTAL OF          7 INNER ITERATIONS.
    ------------------------------------------------

 NO OUTPUT CONTROL FOR STRESS PERIOD   19   TIME STEP    6
 
 SOLVING FOR HEAD 
                                                   Max.-Head-Change                         Max.-Flux-Residual
  Residual-Control   Outer-Iter.   Inner-Iter.     Column Row Layer    Maximum-Head-Change  Column Row Layer    Maximum-Flux-Residual          L2-NORM 
          0                 1           2             4    7     1      -0.1563071989E-01       4    7    1        -0.8189429229E+00      0.2030734217E+01
          0                 2           2             4    7     1       0.1548857511E-02       4    7    1         0.8189398197E-01      0.2027566381E+00
          0                 3           2             4    7     1      -0.1381311567E-03       4    7    1        -0.7370462331E-02      0.1821871094E-01
          0                 4           1             4    7     1       0.1096390879E-04       4    7    1         0.5903741505E-03      0.1456822204E-02

    ------------------------------------------------
       NWT REQUIRED            4 OUTER ITERATIONS 
       AND A TOTAL OF          7 INNER ITERATIONS.
    ------------------------------------------------

 NO OUTPUT CONTROL FOR STRESS PERIOD   19   TIME STEP    7
 
 SOLVING FOR HEAD 
                                                   Max.-Head-Change                         Max.-Flux-Residual
  Residual-Control   Outer-Iter.   Inner-Iter.     Column Row Layer    Maximum-Head-Change  Column Row Layer    Maximum-Flux-Residual          L2-NORM 
          0                 1           2             4    7     1      -0.1449616558E-01       4    7    1        -0.7598874079E+00      0.1868643918E+01
          0                 2           2             4    7     1       0.1432080056E-02       4    7    1         0.7570391939E-01      0.1864532598E+00
          0                 3           2             4    7     1      -0.1277166180E-03       4    7    1        -0.6813355030E-02      0.1675323848E-01
          0                 4           1             4    7     1       0.1013727386E-04       4    7    1         0.5457498548E-03      0.1339553656E-02

    ------------------------------------------------
       NWT REQUIRED            4 OUTER ITERATIONS 
       AND A TOTAL OF          7 INNER ITERATIONS.
    ------------------------------------------------

 NO OUTPUT CONTROL FOR STRESS PERIOD   19   TIME STEP    8
 
 SOLVING FOR HEAD 
                                                   Max.-Head-Change                         Max.-Flux-Residual
  Residual-Control   Outer-Iter.   Inner-Iter.     Column Row Layer    Maximum-Head-Change  Column Row Layer    Maximum-Flux-Residual          L2-NORM 
          0                 1           2             4    7     1      -0.1347411220E-01       4    7    1        -0.7063074020E+00      0.1723742189E+01
          0                 2           2             4    7     1       0.1335159823E-02       4    7    1         0.7063059877E-01      0.1720824126E+00
          0                 3           2             4    7     1      -0.1190730204E-03       4    7    1        -0.6356756077E-02      0.1546155769E-01
          0                 4           1             4    7     1       0.9451203859E-05       4    7    1         0.5091762587E-03      0.1236311545E-02

    ------------------------------------------------
       NWT REQUIRED            4 OUTER ITERATIONS 
       AND A TOTAL OF          7 INNER ITERATIONS.
    ------------------------------------------------

 NO OUTPUT CONTROL FOR STRESS PERIOD   19   TIME STEP    9
 
 SOLVING FOR HEAD 
                                                   Max.-Head-Change                         Max.-Flux-Residual
  Residual-Control   Outer-Iter.   Inner-Iter.     Column Row Layer    Maximum-Head-Change  Column Row Layer    Maximum-Flux-Residual          L2-NORM 
          0                 1           2             4    7     1      -0.4679688386E-01       4    7    1        -0.2447750632E+01      0.5869422828E+01
          0                 2           2             4    7     1       0.4637127974E-02       4    7    1         0.2447739686E+00      0.5868660526E+00
          0                 3           2             4    7     1      -0.4135512167E-03       4    7    1        -0.2202967067E-01      0.5281133884E-01
          0                 4           1             4    7     1       0.3282487404E-04       4    7    1         0.1764576983E-02      0.4229607939E-02

    ------------------------------------------------
       NWT REQUIRED            4 OUTER ITERATIONS 
       AND A TOTAL OF          7 INNER ITERATIONS.
    ------------------------------------------------

 NO OUTPUT CONTROL FOR STRESS PERIOD   19   TIME STEP   10
 
 SOLVING FOR HEAD 
                                                   Max.-Head-Change                         Max.-Flux-Residual
  Residual-Control   Outer-Iter.   Inner-Iter.     Column Row Layer    Maximum-Head-Change  Column Row Layer    Maximum-Flux-Residual          L2-NORM 
          0                 1           2             4    7     1      -0.5435320101E-01       4    7    1        -0.2843607352E+01      0.6762296744E+01
          0                 2           2             4    7     1       0.5385882616E-02       4    7    1         0.2843591587E+00      0.6761691015E+00
          0                 3           2             4    7     1      -0.4803271643E-03       4    7    1        -0.2559234294E-01      0.6085024473E-01
          0                 4           1             4    7     1       0.3812509283E-04       4    7    1         0.2049947071E-02      0.4873748464E-02

    ------------------------------------------------
       NWT REQUIRED            4 OUTER ITERATIONS 
       AND A TOTAL OF          7 INNER ITERATIONS.
    ------------------------------------------------

 NO OUTPUT CONTROL FOR STRESS PERIOD   19   TIME STEP   11
 
 SOLVING FOR HEAD 
                                                   Max.-Head-Change                         Max.-Flux-Residual
  Residual-Control   Outer-Iter.   Inner-Iter.     Column Row Layer    Maximum-Head-Change  Column Row Layer    Maximum-Flux-Residual          L2-NORM 
          0                 1           2             4    7     1      -0.4356451602E-01       4    7    1        -0.2280975628E+01      0.5310265146E+01
          0                 2           2             4    7     1       0.4316737385E-02       4    7    1         0.2280963360E+00      0.5308081344E+00
          0                 3           2             4    7     1      -0.3849779726E-03       4    7    1        -0.2052868487E-01      0.4777049122E-01
          0                 4           1             4    7     1       0.3055692489E-04       4    7    1         0.1644347989E-02      0.3826174585E-02

    ------------------------------------------------
       NWT REQUIRED            4 OUTER ITERATIONS 
       AND A TOTAL OF          7 INNER ITERATIONS.
    ------------------------------------------------

 NO OUTPUT CONTROL FOR STRESS PERIOD   19   TIME STEP   12
 
 SOLVING FOR HEAD 
                                                   Max.-Head-Change                         Max.-Flux-Residual
  Residual-Control   Outer-Iter.   Inner-Iter.     Column Row Layer    Maximum-Head-Change  Column Row Layer    Maximum-Flux-Residual          L2-NORM 
          0                 1           2             4    7     1      -0.3571714738E-01       4    7    1        -0.1871669334E+01      0.4290922989E+01
          0                 2           2             4    7     1       0.3539229431E-02       4    7    1         0.1871659586E+00      0.4289213641E+00
          0                 3           2             4    7     1      -0.3156377650E-03       4    7    1        -0.1684494794E-01      0.3858743341E-01
          0                 4           1             4    7     1       0.2505317184E-04       4    7    1         0.1349280583E-02      0.3089648075E-02

    ------------------------------------------------
       NWT REQUIRED            4 OUTER ITERATIONS 
       AND A TOTAL OF          7 INNER ITERATIONS.
    ------------------------------------------------

 NO OUTPUT CONTROL FOR STRESS PERIOD   19   TIME STEP   13
 
 SOLVING FOR HEAD 
                                                   Max.-Head-Change                         Max.-Flux-Residual
  Residual-Control   Outer-Iter.   Inner-Iter.     Column Row Layer    Maximum-Head-Change  Column Row Layer    Maximum-Flux-Residual          L2-NORM 
          0                 1           2             4    7     1      -0.3012959158E-01       4    7    1        -0.1580199709E+01      0.3555779741E+01
          0                 2           2             4    7     1       0.2985556278E-02       4    7    1         0.1580191719E+00      0.3554089397E+00
          0                 3           2             4    7     1      -0.2662597365E-03       4    7    1        -0.1422173510E-01      0.3197138629E-01
          0                 4           1             4    7     1       0.2113388118E-04       4    7    1         0.1139161201E-02      0.2559650320E-02

    ------------------------------------------------
       NWT REQUIRED            4 OUTER ITERATIONS 
       AND A TOTAL OF          7 INNER ITERATIONS.
    ------------------------------------------------

 NO OUTPUT CONTROL FOR STRESS PERIOD   19   TIME STEP   14
 
 SOLVING FOR HEAD 
                                                   Max.-Head-Change                         Max.-Flux-Residual
  Residual-Control   Outer-Iter.   Inner-Iter.     Column Row Layer    Maximum-Head-Change  Column Row Layer    Maximum-Flux-Residual          L2-NORM 
          0                 1           2             4    7     1      -0.3064266408E-01       4    7    1        -0.1607330736E+01      0.3596240774E+01
          0                 2           2             4    7     1       0.3036396367E-02       4    7    1         0.1607322263E+00      0.3594860934E+00
          0                 3           2             4    7     1      -0.2707937942E-03       4    7    1        -0.1446591050E-01      0.3234115096E-01
          0                 4           1             4    7     1       0.2149376384E-04       4    7    1         0.1158719660E-02      0.2589394850E-02

    ------------------------------------------------
       NWT REQUIRED            4 OUTER ITERATIONS 
       AND A TOTAL OF          7 INNER ITERATIONS.
    ------------------------------------------------

 NO OUTPUT CONTROL FOR STRESS PERIOD   19   TIME STEP   15
 
 SOLVING FOR HEAD 
                                                   Max.-Head-Change                         Max.-Flux-Residual
  Residual-Control   Outer-Iter.   Inner-Iter.     Column Row Layer    Maximum-Head-Change  Column Row Layer    Maximum-Flux-Residual          L2-NORM 
          0                 1           2             4    7     1      -0.2667746588E-01       4    7    1        -0.1400440808E+01      0.3082497346E+01
          0                 2           2             4    7     1       0.2643483329E-02       4    7    1         0.1400433628E+00      0.3081172878E+00
          0                 3           2             4    7     1      -0.2357527748E-03       4    7    1        -0.1260391126E-01      0.2771832398E-01
          0                 4           1             4    7     1       0.1871244649E-04       4    7    1         0.1009573493E-02      0.2219176581E-02

    ------------------------------------------------
       NWT REQUIRED            4 OUTER ITERATIONS 
       AND A TOTAL OF          7 INNER ITERATIONS.
    ------------------------------------------------

 NO OUTPUT CONTROL FOR STRESS PERIOD   19   TIME STEP   16
 
 SOLVING FOR HEAD 
                                                   Max.-Head-Change                         Max.-Flux-Residual
  Residual-Control   Outer-Iter.   Inner-Iter.     Column Row Layer    Maximum-Head-Change  Column Row Layer    Maximum-Flux-Residual          L2-NORM 
          0                 1           2             4    7     1      -0.2332835533E-01       4    7    1        -0.1225619057E+01      0.2657745489E+01
          0                 2           2             4    7     1       0.2311618661E-02       4    7    1         0.1225612984E+00      0.2656482468E+00
          0                 3           2             4    7     1      -0.2061562098E-03       4    7    1        -0.1103052417E-01      0.2389623441E-01
          0                 4           1             4    7     1       0.1636327351E-04       4    7    1         0.8835451638E-03      0.1912689335E-02

    ------------------------------------------------
       NWT REQUIRED            4 OUTER ITERATIONS 
       AND A TOTAL OF          7 INNER ITERATIONS.
    ------------------------------------------------

 NO OUTPUT CONTROL FOR STRESS PERIOD   19   TIME STEP   17
 
 SOLVING FOR HEAD 
                                                   Max.-Head-Change                         Max.-Flux-Residual
  Residual-Control   Outer-Iter.   Inner-Iter.     Column Row Layer    Maximum-Head-Change  Column Row Layer    Maximum-Flux-Residual          L2-NORM 
          0                 1           2             4    7     1      -0.2051930350E-01       4    7    1        -0.1078916128E+01      0.2310132741E+01
          0                 2           2             4    7     1       0.2033268615E-02       4    7    1         0.1078910984E+00      0.2308938388E+00
          0                 3           2             4    7     1      -0.1813322197E-03       4    7    1        -0.9710205103E-02      0.2076955817E-01
          0                 4           1             4    7     1       0.1439291423E-04       4    7    1         0.7777875701E-03      0.1662987800E-02

    ------------------------------------------------
       NWT REQUIRED            4 OUTER ITERATIONS 
       AND A TOTAL OF          7 INNER ITERATIONS.
    ------------------------------------------------

 NO OUTPUT CONTROL FOR STRESS PERIOD   19   TIME STEP   18
 
 SOLVING FOR HEAD 
                                                   Max.-Head-Change                         Max.-Flux-Residual
  Residual-Control   Outer-Iter.   Inner-Iter.     Column Row Layer    Maximum-Head-Change  Column Row Layer    Maximum-Flux-Residual          L2-NORM 
          0                 1           2             4    7     1      -0.1799278045E-01       4    7    1        -0.9468960656E+00      0.1988314912E+01
          0                 2           2             4    7     1       0.1782914262E-02       4    7    1         0.9468917548E-01      0.1988276866E+00
          0                 3           2             4    7     1      -0.1590049603E-03       4    7    1        -0.8522031091E-02      0.1789434512E-01
          0                 4           1             4    7     1       0.1262072901E-04       4    7    1         0.6826148426E-03      0.1433329303E-02

    ------------------------------------------------
       NWT REQUIRED            4 OUTER ITERATIONS 
       AND A TOTAL OF          7 INNER ITERATIONS.
    ------------------------------------------------

 NO OUTPUT CONTROL FOR STRESS PERIOD   19   TIME STEP   19
 
 SOLVING FOR HEAD 
                                                   Max.-Head-Change                         Max.-Flux-Residual
  Residual-Control   Outer-Iter.   Inner-Iter.     Column Row Layer    Maximum-Head-Change  Column Row Layer    Maximum-Flux-Residual          L2-NORM 
          0                 1           2             4    7     1      -0.1584452452E-01       4    7    1        -0.8345744811E+00      0.1820289824E+01
          0                 2           2             4    7     1       0.1570042885E-02       4    7    1         0.8345708685E-01      0.1815843107E+00
          0                 3           2             4    7     1      -0.1400205308E-03       4    7    1        -0.7511142305E-02      0.1630124470E-01
          0                 4           1             4    7     1       0.1111387465E-04       4    7    1         0.6016426353E-03      0.1302019499E-02

    ------------------------------------------------
       NWT REQUIRED            4 OUTER ITERATIONS 
       AND A TOTAL OF          7 INNER ITERATIONS.
    ------------------------------------------------

 NO OUTPUT CONTROL FOR STRESS PERIOD   19   TIME STEP   20
 
 SOLVING FOR HEAD 
                                                   Max.-Head-Change                         Max.-Flux-Residual
  Residual-Control   Outer-Iter.   Inner-Iter.     Column Row Layer    Maximum-Head-Change  Column Row Layer    Maximum-Flux-Residual          L2-NORM 
          0                 1           2             4    7     1      -0.1399734714E-01       4    7    1        -0.7379319805E+00      0.1613415989E+01
          0                 2           2             4    7     1       0.1387005301E-02       4    7    1         0.7379289561E-01      0.1609124552E+00
          0                 3           1             4    7     1      -0.1236967574E-03       4    7    1        -0.6641364390E-02      0.1444192267E-01
          0                 4           1             4    7     1       0.9818204736E-05       4    7    1         0.5319733971E-03      0.1153525998E-02

    ------------------------------------------------
       NWT REQUIRED            4 OUTER ITERATIONS 
       AND A TOTAL OF          6 INNER ITERATIONS.
    ------------------------------------------------

 NO OUTPUT CONTROL FOR STRESS PERIOD   19   TIME STEP   21
 
 SOLVING FOR HEAD 
                                                   Max.-Head-Change                         Max.-Flux-Residual
  Residual-Control   Outer-Iter.   Inner-Iter.     Column Row Layer    Maximum-Head-Change  Column Row Layer    Maximum-Flux-Residual          L2-NORM 
          0                 1           2             4    7     1      -0.1238662689E-01       4    7    1        -0.6536036208E+00      0.1440415552E+01
          0                 2           2             4    7     1       0.1227398330E-02       4    7    1         0.6536010954E-01      0.1436308472E+00
          0                 3           1             4    7     1      -0.1094625886E-03       4    7    1        -0.5882413076E-02      0.1288848210E-01
          0                 4           1             4    7     1       0.8688393648E-05       4    7    1         0.4711813995E-03      0.1029161025E-02

    ------------------------------------------------
       NWT REQUIRED            4 OUTER ITERATIONS 
       AND A TOTAL OF          6 INNER ITERATIONS.
    ------------------------------------------------

 NO OUTPUT CONTROL FOR STRESS PERIOD   19   TIME STEP   22
 
 SOLVING FOR HEAD 
                                                   Max.-Head-Change                         Max.-Flux-Residual
  Residual-Control   Outer-Iter.   Inner-Iter.     Column Row Layer    Maximum-Head-Change  Column Row Layer    Maximum-Flux-Residual          L2-NORM 
          0                 1           2             4    7     1      -0.1097522493E-01       4    7    1        -0.5796575588E+00      0.1295735140E+01
          0                 2           2             4    7     1       0.1087541872E-02       4    7    1         0.5796554572E-01      0.1291823908E+00
          0                 3           1             4    7     1      -0.9698982194E-04       4    7    1        -0.5216901827E-02      0.1158996223E-01

    ------------------------------------------------
       NWT REQUIRED            3 OUTER ITERATIONS 
       AND A TOTAL OF          5 INNER ITERATIONS.
    ------------------------------------------------

 NO OUTPUT CONTROL FOR STRESS PERIOD   19   TIME STEP   23
 
 SOLVING FOR HEAD 
                                                   Max.-Head-Change                         Max.-Flux-Residual
  Residual-Control   Outer-Iter.   Inner-Iter.     Column Row Layer    Maximum-Head-Change  Column Row Layer    Maximum-Flux-Residual          L2-NORM 
          0                 1           2             4    7     1      -0.9716486644E-02       4    7    1        -0.5136638842E+00      0.1173253224E+01
          0                 2           2             4    7     1       0.9628129017E-03       4    7    1         0.5136621453E-01      0.1169550795E+00
          0                 3           1             4    7     1      -0.8586616482E-04       4    7    1        -0.4622961576E-02      0.1049135070E-01

    ------------------------------------------------
       NWT REQUIRED            3 OUTER ITERATIONS 
       AND A TOTAL OF          5 INNER ITERATIONS.
    ------------------------------------------------

 NO OUTPUT CONTROL FOR STRESS PERIOD   19   TIME STEP   24
 
 SOLVING FOR HEAD 
                                                   Max.-Head-Change                         Max.-Flux-Residual
  Residual-Control   Outer-Iter.   Inner-Iter.     Column Row Layer    Maximum-Head-Change  Column Row Layer    Maximum-Flux-Residual          L2-NORM 
          0                 1           2             4    7     1      -0.8602428671E-02       4    7    1        -0.4552107994E+00      0.1070913722E+01
          0                 2           2             4    7     1       0.8524203504E-03       4    7    1         0.4552093683E-01      0.1067436533E+00
          0                 3           1             4    7     1      -0.7602106786E-04       4    7    1        -0.4096886228E-02      0.9574221211E-02

    ------------------------------------------------
       NWT REQUIRED            3 OUTER ITERATIONS 
       AND A TOTAL OF          5 INNER ITERATIONS.
    ------------------------------------------------

 NO OUTPUT CONTROL FOR STRESS PERIOD   19   TIME STEP   25
 
 SOLVING FOR HEAD 
                                                   Max.-Head-Change                         Max.-Flux-Residual
  Residual-Control   Outer-Iter.   Inner-Iter.     Column Row Layer    Maximum-Head-Change  Column Row Layer    Maximum-Flux-Residual          L2-NORM 
          0                 1           2             4    7     1      -0.7590425735E-02       4    7    1        -0.4020764985E+00      0.9250133054E+00
          0                 2           2             4    7     1       0.7521404597E-03       4    7    1         0.4020753327E-01      0.9249767475E-01
          0                 3           1             4    7     1      -0.6707784439E-04       4    7    1        -0.3618679584E-02      0.8324456081E-02

    ------------------------------------------------
       NWT REQUIRED            3 OUTER ITERATIONS 
       AND A TOTAL OF          5 INNER ITERATIONS.
    ------------------------------------------------

 NO OUTPUT CONTROL FOR STRESS PERIOD   19   TIME STEP   26
 
 SOLVING FOR HEAD 
                                                   Max.-Head-Change                         Max.-Flux-Residual
  Residual-Control   Outer-Iter.   Inner-Iter.     Column Row Layer    Maximum-Head-Change  Column Row Layer    Maximum-Flux-Residual          L2-NORM 
          0                 1           2             4    7     1      -0.6692207687E-02       4    7    1        -0.3548784136E+00      0.9734594572E+00
          0                 2           2             4    7     1       0.6631355526E-03       4    7    1         0.3548774710E-01      0.9666217866E-01
          0                 3           1             4    7     1      -0.5914015368E-04       4    7    1        -0.3193898558E-02      0.8635871854E-02

    ------------------------------------------------
       NWT REQUIRED            3 OUTER ITERATIONS 
       AND A TOTAL OF          5 INNER ITERATIONS.
    ------------------------------------------------

 NO OUTPUT CONTROL FOR STRESS PERIOD   19   TIME STEP   27
 
 SOLVING FOR HEAD 
                                                   Max.-Head-Change                         Max.-Flux-Residual
  Residual-Control   Outer-Iter.   Inner-Iter.     Column Row Layer    Maximum-Head-Change  Column Row Layer    Maximum-Flux-Residual          L2-NORM 
          0                 1           2             4    7     1      -0.5869852487E-02       4    7    1        -0.3116381986E+00      0.9012945132E+00
          0                 2           2             4    7     1       0.5816479162E-03       4    7    1         0.3116374477E-01      0.8951629341E-01
          0                 3           1             4    7     1      -0.5187287308E-04       4    7    1        -0.2804738109E-02      0.7999911682E-02

    ------------------------------------------------
       NWT REQUIRED            3 OUTER ITERATIONS 
       AND A TOTAL OF          5 INNER ITERATIONS.
    ------------------------------------------------

 NO OUTPUT CONTROL FOR STRESS PERIOD   19   TIME STEP   28
 
 SOLVING FOR HEAD 
                                                   Max.-Head-Change                         Max.-Flux-Residual
  Residual-Control   Outer-Iter.   Inner-Iter.     Column Row Layer    Maximum-Head-Change  Column Row Layer    Maximum-Flux-Residual          L2-NORM 
          0                 1           2             4    7     1      -0.5125024792E-02       4    7    1        -0.2724449802E+00      0.8177367717E+00
          0                 2           2             4    7     1       0.5078425061E-03       4    7    1         0.2724443917E-01      0.8133481399E-01
          0                 3           1             4    7     1      -0.4529071395E-04       4    7    1        -0.2452000407E-02      0.7279034761E-02

    ------------------------------------------------
       NWT REQUIRED            3 OUTER ITERATIONS 
       AND A TOTAL OF          5 INNER ITERATIONS.
    ------------------------------------------------

 NO OUTPUT CONTROL FOR STRESS PERIOD   19   TIME STEP   29
 
 SOLVING FOR HEAD 
                                                   Max.-Head-Change                         Max.-Flux-Residual
  Residual-Control   Outer-Iter.   Inner-Iter.     Column Row Layer    Maximum-Head-Change  Column Row Layer    Maximum-Flux-Residual          L2-NORM 
          0                 1           2             4   13     1      -0.1010285603E-01       4   13    1        -0.5799807023E+00      0.1208024979E+01
          0                 2           2             4   13     1       0.9908382304E-03       4   13    1         0.5740939258E-01      0.1185145962E+00
          0                 3           1             4   13     1      -0.8735921528E-04       4   13    1        -0.5108608076E-02      0.1044858491E-01

    ------------------------------------------------
       NWT REQUIRED            3 OUTER ITERATIONS 
       AND A TOTAL OF          5 INNER ITERATIONS.
    ------------------------------------------------

 NO OUTPUT CONTROL FOR STRESS PERIOD   19   TIME STEP   30



 STREAM LISTING     PERIOD     19   STEP       30

 LAYER ROW COL. STREAM  RCH.  FLOW INTO     FLOW TO   FLOW OUT OF   OVRLND.     DIRECT     STREAM       STREAM     STREAM     STREAM   STREAMBED  STREAMBED
                SEG.NO.  NO.  STRM. RCH.    AQUIFER    STRM. RCH.    RUNOFF     PRECIP       ET          HEAD       DEPTH      WIDTH   CONDCTNC.   GRADIENT

   1    1    1     1     1    2.8000E+01  2.5860E-01   2.7741E+01  0.000E+00  0.000E+00  0.000E+00  1.09427E+03  1.221E+00  1.361E+01  6.126E-02  1.407E+00
   1    2    2     1     2    2.7741E+01  4.0002E-01   2.7341E+01  0.000E+00  0.000E+00  0.000E+00  1.08928E+03  1.217E+00  1.355E+01  9.487E-02  1.406E+00
   1    3    3     1     3    2.7341E+01  3.4070E-01   2.7001E+01  0.000E+00  0.000E+00  0.000E+00  1.08363E+03  1.212E+00  1.348E+01  8.090E-02  1.404E+00
   1    3    4     1     4    2.7001E+01  3.1335E-01   2.6687E+01  0.000E+00  0.000E+00  0.000E+00  1.07861E+03  1.207E+00  1.342E+01  7.448E-02  1.402E+00
   1    4    5     2     1    2.4687E+01  3.2711E-01   2.4360E+01  0.000E+00  0.000E+00  0.000E+00  1.07313E+03  1.194E+00  1.200E+01  7.800E-02  1.398E+00
   1    5    6     2     2    2.4360E+01  2.5111E-01   2.4109E+01  0.000E+00  0.000E+00  0.000E+00  1.06769E+03  1.185E+00  1.200E+01  6.000E-02  1.395E+00
   1    6    6     2     3    2.4109E+01  2.5067E-01   2.3858E+01  0.000E+00  0.000E+00  0.000E+00  1.06297E+03  1.178E+00  1.200E+01  6.000E-02  1.393E+00
   1    7    6     2     4    2.3858E+01  2.5023E-01   2.3608E+01  0.000E+00  0.000E+00  0.000E+00  1.05825E+03  1.170E+00  1.200E+01  6.000E-02  1.390E+00
   1    8    6     2     5    2.3608E+01  2.4978E-01   2.3358E+01  0.000E+00  0.000E+00  0.000E+00  1.05352E+03  1.163E+00  1.200E+01  6.000E-02  1.388E+00
   1    3    5     3     1    2.0000E+00  2.8252E-01   1.7175E+00  0.000E+00  0.000E+00  0.000E+00  1.07555E+03  1.909E+00  9.636E+00  7.227E-02  1.955E+00
   1    3    6     3     2    1.7175E+00  2.4905E-01   1.4684E+00  0.000E+00  0.000E+00  0.000E+00  1.07264E+03  1.727E+00  8.909E+00  6.682E-02  1.864E+00
   1    3    7     3     3    1.4684E+00  1.9718E-01   1.2712E+00  0.000E+00  0.000E+00  0.000E+00  1.06987E+03  1.555E+00  8.218E+00  5.547E-02  1.777E+00
   1    4    8     3     4    1.2712E+00  2.2567E-01   1.0456E+00  0.000E+00  0.000E+00  0.000E+00  1.06682E+03  1.364E+00  7.455E+00  6.709E-02  1.682E+00
   1    5    8     3     5    1.0456E+00  1.5790E-01   8.8768E-01  0.000E+00  0.000E+00  0.000E+00  1.06362E+03  1.164E+00  6.655E+00  4.991E-02  1.582E+00
   1    6    8     3     6    8.8768E-01  5.5980E-02   8.3170E-01  0.000E+00  0.000E+00  0.000E+00  1.06158E+03  1.036E+00  6.145E+00  1.844E-02  1.518E+00
   1    5   10     4     1    1.0000E+01  9.0919E-02   9.9091E+00  0.000E+00  0.000E+00  0.000E+00  1.07836E+03  6.368E-01  1.000E+01  2.500E-02  1.212E+00
   1    5    9     4     2    9.9091E+00  1.8158E-01   9.7275E+00  0.000E+00  0.000E+00  0.000E+00  1.07154E+03  6.315E-01  1.000E+01  5.000E-02  1.211E+00
   1    6    8     4     3    9.7275E+00  1.2689E-01   9.6006E+00  0.000E+00  0.000E+00  0.000E+00  1.06381E+03  6.256E-01  1.000E+01  3.500E-02  1.209E+00
   1    6    8     5     1    1.0432E+01  2.2686E-01   1.0205E+01  0.000E+00  0.000E+00  0.000E+00  1.05868E+03  6.790E-01  1.542E+01  6.166E-02  1.226E+00
   1    7    7     5     2    1.0205E+01  2.7894E-01   9.9265E+00  0.000E+00  0.000E+00  0.000E+00  1.05417E+03  6.732E-01  1.519E+01  7.594E-02  1.224E+00
   1    8    7     5     3    9.9265E+00  1.9221E-01   9.7343E+00  0.000E+00  0.000E+00  0.000E+00  1.04992E+03  6.676E-01  1.497E+01  5.241E-02  1.223E+00
   1    8    6     5     4    9.7343E+00  1.3577E-01   9.5985E+00  0.000E+00  0.000E+00  0.000E+00  1.04691E+03  6.637E-01  1.482E+01  3.706E-02  1.221E+00
   1    9    6     6     1    3.2957E+01  2.6627E-01   3.2691E+01  0.000E+00  0.000E+00  0.000E+00  1.04417E+03  1.438E+00  1.200E+01  6.000E-02  1.479E+00
   1   10    7     6     2    3.2691E+01  2.6584E-01   3.2425E+01  0.000E+00  0.000E+00  0.000E+00  1.03961E+03  1.431E+00  1.200E+01  6.000E-02  1.477E+00
   1   11    7     6     3    3.2425E+01  2.6542E-01   3.2159E+01  0.000E+00  0.000E+00  0.000E+00  1.03506E+03  1.424E+00  1.200E+01  6.000E-02  1.475E+00
   1   12    7     6     4    3.2159E+01  2.6500E-01   3.1894E+01  0.000E+00  0.000E+00  0.000E+00  1.03051E+03  1.417E+00  1.200E+01  6.000E-02  1.472E+00
   1   13    7     6     5    3.1894E+01  6.0064E-03   3.1888E+01  0.000E+00  0.000E+00  0.000E+00  1.02732E+03  1.413E+00  1.200E+01  2.400E-02  8.342E-02
   1   14    9     7     1    1.5000E+02  1.3411E+00   1.4866E+02  0.000E+00  0.000E+00  0.000E+00  1.03987E+03  2.288E+00  5.529E+01  5.593E-01  7.993E-01
   1   13    8     7     2    1.4866E+02  1.8366E+00   1.4682E+02  0.000E+00  0.000E+00  0.000E+00  1.03478E+03  2.279E+00  5.526E+01  6.148E-01  9.958E-01
   1   13    7     7     3    1.4682E+02  1.4620E+00   1.4536E+02  0.000E+00  0.000E+00  0.000E+00  1.02969E+03  2.270E+00  5.522E+01  5.585E-01  8.726E-01
   1   13    6     8     1    1.7725E+02  9.4400E-01   1.7630E+02  0.000E+00  0.000E+00  0.000E+00  1.02487E+03  2.996E+00  4.344E+01  4.427E-01  7.109E-01
   1   13    5     8     2    1.7630E+02  2.2509E-01   1.7608E+02  0.000E+00  0.000E+00  0.000E+00  1.01862E+03  2.992E+00  4.339E+01  4.421E-01  1.697E-01
   1   13    4     8     3    1.7608E+02 -2.3545E+00   1.7843E+02  0.000E+00  0.000E+00  0.000E+00  1.01237E+03  2.999E+00  4.348E+01  4.431E+00 -1.771E-01
   1   13    3     8     4    1.7843E+02 -3.5300E+00   1.8196E+02  0.000E+00  0.000E+00  0.000E+00  1.00614E+03  3.017E+00  4.375E+01  4.459E+00 -2.639E-01
   1   13    2     8     5    1.8196E+02 -2.6680E+00   1.8463E+02  0.000E+00  0.000E+00  0.000E+00  9.99912E+02  3.037E+00  4.403E+01  4.487E+00 -1.982E-01
   1   13    1     8     6    1.8463E+02 -1.7379E+00   1.8637E+02  0.000E+00  0.000E+00  0.000E+00  9.94925E+02  3.050E+00  4.423E+01  2.704E+00 -2.142E-01
   1    6    8     9     1    0.0000E+00  0.0000E+00   0.0000E+00  0.000E+00  0.000E+00  0.000E+00  1.07850E+03  0.000E+00  4.000E+00  0.000E+00  1.000E+00





UNSATURATED ZONE PACKAGE VOLUMETRIC BUDGET FOR  TIME STEP    30 STRESS PERIOD   19
  ------------------------------------------------------------------------------



     CUMULATIVE VOLUMES      L**3       RATES FOR THIS TIME STEP      L**3/T
     ------------------                 ------------------------

           IN:                                      IN:
           ---                                      ---
        INFILTRATION =    89168295.3618          INFILTRATION =           3.4449

          OUT:                                     OUT:
          ----                                     ----
              UZF ET =    57907757.6263                UZF ET =           2.5488
        UZF RECHARGE =       73224.0000          UZF RECHARGE =       0.0000E+00

            IN - OUT =    31187313.7355              IN - OUT =           0.8961

          STORAGE:                                 STORAGE:
          --------                                 --------
      STORAGE CHANGE =    31185935.6916        STORAGE CHANGE =           0.8961

 PERCENT DISCREPANCY IS DIFFERENCE BETWEEN IN-OUT MINUS CHANGE IN STORAGE
 DIVIDED BY THE AVERAGE OF IN AND OUT TIMES 100

 PERCENT DISCREPANCY =           0.00     PERCENT DISCREPANCY =          -0.00






1
  VOLUMETRIC BUDGET FOR ENTIRE MODEL AT END OF TIME STEP   30, STRESS PERIOD  19
  ------------------------------------------------------------------------------

     CUMULATIVE VOLUMES      L**3       RATES FOR THIS TIME STEP      L**3/T
     ------------------                 ------------------------

           IN:                                      IN:
           ---                                      ---
    AWU WELLS            =    89095048.0000      AWU WELLS            =           3.4449
    DIVERSION SEGMENTS   =           0.0000      DIVERSION SEGMENTS   =           0.0000
    GW IRRIGATION        =           0.0000      GW IRRIGATION        =           0.0000
    SW IRRIGATION        =           0.0000      SW IRRIGATION        =           0.0000
    EFFICIENCY FACTOR GW =           0.0000      EFFICIENCY FACTOR GW =           0.0000
    EFFICIENCY FACTOR SW =           0.0000      EFFICIENCY FACTOR SW =           0.0000

                TOTAL IN =    89095048.0000                  TOTAL IN =           3.4449

          OUT:                                     OUT:
          ----                                     ----
    AWU WELLS            =           0.0000      AWU WELLS            =           0.0000
    DIVERSION SEGMENTS   =           0.0000      DIVERSION SEGMENTS   =           0.0000
    GW IRRIGATION        =    89095048.0000      GW IRRIGATION        =           3.4449
    SW IRRIGATION        =           0.0000      SW IRRIGATION        =           0.0000
    EFFICIENCY FACTOR GW =           0.0000      EFFICIENCY FACTOR GW =           0.0000
    EFFICIENCY FACTOR SW =           0.0000      EFFICIENCY FACTOR SW =           0.0000

               TOTAL OUT =    89095048.0000                 TOTAL OUT =           3.4449

                IN - OUT =           0.0000                  IN - OUT =           0.0000

     PERCENT DISCREPANCY =           0.00         PERCENT DISCREPANCY =           0.00



1
  VOLUMETRIC BUDGET FOR ENTIRE MODEL AT END OF TIME STEP   30, STRESS PERIOD  19
  ------------------------------------------------------------------------------

     CUMULATIVE VOLUMES      L**3       RATES FOR THIS TIME STEP      L**3/T
     ------------------                 ------------------------

           IN:                                      IN:
           ---                                      ---
             STORAGE     =   155745568.0000               STORAGE     =           5.3472
       CONSTANT HEAD     =           0.0000         CONSTANT HEAD     =           0.0000
     HEAD DEP BOUNDS     =    13551128.0000       HEAD DEP BOUNDS     =           0.2861
      STREAM LEAKAGE     =   563510016.0000        STREAM LEAKAGE     =          11.9203
        UZF RECHARGE     =       73223.9531          UZF RECHARGE     =           0.0000
               GW ET     =           0.0000                 GW ET     =           0.0000
     SURFACE LEAKAGE     =           0.0000       SURFACE LEAKAGE     =           0.0000
    AWU WELLS            =           0.0000      AWU WELLS            =           0.0000

                TOTAL IN =   732879936.0000                  TOTAL IN =          17.5536

          OUT:                                     OUT:
          ----                                     ----
             STORAGE     =    99969472.0000               STORAGE     =           0.4774
       CONSTANT HEAD     =           0.0000         CONSTANT HEAD     =           0.0000
     HEAD DEP BOUNDS     =    13629480.0000       HEAD DEP BOUNDS     =           0.2876
      STREAM LEAKAGE     =   463901280.0000        STREAM LEAKAGE     =          10.2904
        UZF RECHARGE     =           0.0000          UZF RECHARGE     =           0.0000
               GW ET     =    66279400.0000                 GW ET     =           3.0498
     SURFACE LEAKAGE     =           0.0000       SURFACE LEAKAGE     =           0.0000
    AWU WELLS            =    89095048.0000      AWU WELLS            =           3.4449

               TOTAL OUT =   732874688.0000                 TOTAL OUT =          17.5501

                IN - OUT =        5248.0000                  IN - OUT =       3.5152E-03

     PERCENT DISCREPANCY =           0.00         PERCENT DISCREPANCY =           0.02






         TIME SUMMARY AT END OF TIME STEP   30 IN STRESS PERIOD   19
                    SECONDS     MINUTES      HOURS       DAYS        YEARS
                    -----------------------------------------------------------
   TIME STEP LENGTH  87600.      1460.0      24.333      1.0139     2.77588E-03
 STRESS PERIOD TIME 2.62800E+06  43800.      730.00      30.417     8.32763E-02
         TOTAL TIME 4.73904E+07 7.89840E+05  13164.      548.50      1.5017    
1
1
                            STRESS PERIOD NO.   20, LENGTH =   2628000.    
                            -----------------------------------------------

                              NUMBER OF TIME STEPS =    30

                               MULTIPLIER FOR DELT =     1.000

                            INITIAL TIME STEP SIZE =   87600.00    

 REUSING NON-PARAMETER GHB CELLS FROM LAST STRESS PERIOD

      2 GHB CELLS

 REUSING STREAM SEGMENT DATA FROM LAST STRESS PERIOD



            AREAL INFILTRATION RATE
 READING ON UNIT   19 WITH FORMAT: (10F4.0)            

            1           2           3           4           5           6           7           8           9          10
 ........................................................................................................................
   1    0.000       0.000       0.000       0.000       0.000       0.000       0.000       0.000       0.000       0.000    
   2    0.000       0.000       0.000       0.000       0.000       0.000       0.000       0.000       0.000       0.000    
   3    0.000       0.000       0.000       0.000       0.000       0.000       0.000       0.000       0.000       0.000    
   4    0.000       0.000       0.000       0.000       0.000       0.000       0.000       0.000       0.000       0.000    
   5    0.000       0.000       0.000       0.000       0.000       0.000       0.000       0.000       0.000       0.000    
   6    0.000       0.000       0.000       0.000       0.000       0.000       0.000       0.000       0.000       0.000    
   7    0.000       0.000       0.000       0.000       0.000       0.000       0.000       0.000       0.000       0.000    
   8    0.000       0.000       0.000       0.000       0.000       0.000       0.000       0.000       0.000       0.000    
   9    0.000       0.000       0.000       0.000       0.000       0.000       0.000       0.000       0.000       0.000    
  10    0.000       0.000       0.000       0.000       0.000       0.000       0.000       0.000       0.000       0.000    
  11    0.000       0.000       0.000       0.000       0.000       0.000       0.000       0.000       0.000       0.000    
  12    0.000       0.000       0.000       0.000       0.000       0.000       0.000       0.000       0.000       0.000    
  13    0.000       0.000       0.000       0.000       0.000       0.000       0.000       0.000       0.000       0.000    
  14    0.000       0.000       0.000       0.000       0.000       0.000       0.000       0.000       0.000       0.000    
  15    0.000       0.000       0.000       0.000       0.000       0.000       0.000       0.000       0.000       0.000    

                  ET RATE =  6.000000E-08

 USING ET EXTINCTION DEPTH FROM PREVIOUS STRESS PERIOD. CURRENT PERIOD IS:      20

 USING EXTINCTION WATER CONTENT FROM PREVIOUS STRESS PERIOD. CURRENT PERIOD IS:      20

 PROCESSING AWU STRESS PERIOD DATA

 READING AWU STRESS PERIOD DATA

 READING IRRIGATION WELL

 END PROCESSING AWU STRESS PERIOD DATA OPTIONS
 
 SOLVING FOR HEAD 
                                                   Max.-Head-Change                         Max.-Flux-Residual
  Residual-Control   Outer-Iter.   Inner-Iter.     Column Row Layer    Maximum-Head-Change  Column Row Layer    Maximum-Flux-Residual          L2-NORM 
          0                 1           2             4   13     1      -0.2070485723E-01       4   13    1        -0.1186283951E+01      0.2738759780E+01
          0                 2           2             4   13     1       0.2029159685E-02       4   13    1         0.1173337178E+00      0.2695930891E+00
          0                 3           2             4   13     1      -0.1787748858E-03       4   13    1        -0.1043304426E-01      0.2385435004E-01
          0                 4           1             4   13     1       0.1402426971E-04       4   13    1         0.8261313496E-03      0.1873224591E-02

    ------------------------------------------------
       NWT REQUIRED            4 OUTER ITERATIONS 
       AND A TOTAL OF          7 INNER ITERATIONS.
    ------------------------------------------------

 OUTPUT CONTROL FOR STRESS PERIOD   20   TIME STEP    1
    PRINT BUDGET
    SAVE BUDGET
    SAVE BUDGET
 UBDSV1 SAVING "         STORAGE" ON UNIT 102 AT TIME STEP     1, STRESS PERIOD  20
 UBDSV2 SAVING "   CONSTANT HEAD" ON UNIT 102 AT TIME STEP     1, STRESS PERIOD  20
 UBDSV1 SAVING "FLOW RIGHT FACE " ON UNIT 102 AT TIME STEP     1, STRESS PERIOD  20
 UBDSV1 SAVING "FLOW FRONT FACE " ON UNIT 102 AT TIME STEP     1, STRESS PERIOD  20

  HEAD DEP BOUNDS   PERIOD   20   STEP     1
 BOUNDARY      1   LAYER   1   ROW    13   COL     1   RATE   -0.286995    
 BOUNDARY      2   LAYER   1   ROW    14   COL     9   RATE    0.286117    



 STREAM LISTING     PERIOD     20   STEP        1

 LAYER ROW COL. STREAM  RCH.  FLOW INTO     FLOW TO   FLOW OUT OF   OVRLND.     DIRECT     STREAM       STREAM     STREAM     STREAM   STREAMBED  STREAMBED
                SEG.NO.  NO.  STRM. RCH.    AQUIFER    STRM. RCH.    RUNOFF     PRECIP       ET          HEAD       DEPTH      WIDTH   CONDCTNC.   GRADIENT

   1    1    1     1     1    2.8000E+01  2.5860E-01   2.7741E+01  0.000E+00  0.000E+00  0.000E+00  1.09427E+03  1.221E+00  1.361E+01  6.126E-02  1.407E+00
   1    2    2     1     2    2.7741E+01  4.0002E-01   2.7341E+01  0.000E+00  0.000E+00  0.000E+00  1.08928E+03  1.217E+00  1.355E+01  9.487E-02  1.406E+00
   1    3    3     1     3    2.7341E+01  3.4070E-01   2.7001E+01  0.000E+00  0.000E+00  0.000E+00  1.08363E+03  1.212E+00  1.348E+01  8.090E-02  1.404E+00
   1    3    4     1     4    2.7001E+01  3.1335E-01   2.6687E+01  0.000E+00  0.000E+00  0.000E+00  1.07861E+03  1.207E+00  1.342E+01  7.448E-02  1.402E+00
   1    4    5     2     1    2.4687E+01  3.2711E-01   2.4360E+01  0.000E+00  0.000E+00  0.000E+00  1.07313E+03  1.194E+00  1.200E+01  7.800E-02  1.398E+00
   1    5    6     2     2    2.4360E+01  2.5111E-01   2.4109E+01  0.000E+00  0.000E+00  0.000E+00  1.06769E+03  1.185E+00  1.200E+01  6.000E-02  1.395E+00
   1    6    6     2     3    2.4109E+01  2.5067E-01   2.3858E+01  0.000E+00  0.000E+00  0.000E+00  1.06297E+03  1.178E+00  1.200E+01  6.000E-02  1.393E+00
   1    7    6     2     4    2.3858E+01  2.5023E-01   2.3608E+01  0.000E+00  0.000E+00  0.000E+00  1.05825E+03  1.170E+00  1.200E+01  6.000E-02  1.390E+00
   1    8    6     2     5    2.3608E+01  2.4978E-01   2.3358E+01  0.000E+00  0.000E+00  0.000E+00  1.05352E+03  1.163E+00  1.200E+01  6.000E-02  1.388E+00
   1    3    5     3     1    2.0000E+00  2.8252E-01   1.7175E+00  0.000E+00  0.000E+00  0.000E+00  1.07555E+03  1.909E+00  9.636E+00  7.227E-02  1.955E+00
   1    3    6     3     2    1.7175E+00  2.4905E-01   1.4684E+00  0.000E+00  0.000E+00  0.000E+00  1.07264E+03  1.727E+00  8.909E+00  6.682E-02  1.864E+00
   1    3    7     3     3    1.4684E+00  1.9718E-01   1.2712E+00  0.000E+00  0.000E+00  0.000E+00  1.06987E+03  1.555E+00  8.218E+00  5.547E-02  1.777E+00
   1    4    8     3     4    1.2712E+00  2.2567E-01   1.0456E+00  0.000E+00  0.000E+00  0.000E+00  1.06682E+03  1.364E+00  7.455E+00  6.709E-02  1.682E+00
   1    5    8     3     5    1.0456E+00  1.5790E-01   8.8768E-01  0.000E+00  0.000E+00  0.000E+00  1.06362E+03  1.164E+00  6.655E+00  4.991E-02  1.582E+00
   1    6    8     3     6    8.8768E-01  5.5980E-02   8.3170E-01  0.000E+00  0.000E+00  0.000E+00  1.06158E+03  1.036E+00  6.145E+00  1.844E-02  1.518E+00
   1    5   10     4     1    1.0000E+01  9.0919E-02   9.9091E+00  0.000E+00  0.000E+00  0.000E+00  1.07836E+03  6.368E-01  1.000E+01  2.500E-02  1.212E+00
   1    5    9     4     2    9.9091E+00  1.8158E-01   9.7275E+00  0.000E+00  0.000E+00  0.000E+00  1.07154E+03  6.315E-01  1.000E+01  5.000E-02  1.211E+00
   1    6    8     4     3    9.7275E+00  1.2689E-01   9.6006E+00  0.000E+00  0.000E+00  0.000E+00  1.06381E+03  6.256E-01  1.000E+01  3.500E-02  1.209E+00
   1    6    8     5     1    1.0432E+01  2.2686E-01   1.0205E+01  0.000E+00  0.000E+00  0.000E+00  1.05868E+03  6.790E-01  1.542E+01  6.166E-02  1.226E+00
   1    7    7     5     2    1.0205E+01  2.7894E-01   9.9265E+00  0.000E+00  0.000E+00  0.000E+00  1.05417E+03  6.732E-01  1.519E+01  7.594E-02  1.224E+00
   1    8    7     5     3    9.9265E+00  1.9221E-01   9.7343E+00  0.000E+00  0.000E+00  0.000E+00  1.04992E+03  6.676E-01  1.497E+01  5.241E-02  1.223E+00
   1    8    6     5     4    9.7343E+00  1.3577E-01   9.5985E+00  0.000E+00  0.000E+00  0.000E+00  1.04691E+03  6.637E-01  1.482E+01  3.706E-02  1.221E+00
   1    9    6     6     1    3.2957E+01  2.6627E-01   3.2691E+01  0.000E+00  0.000E+00  0.000E+00  1.04417E+03  1.438E+00  1.200E+01  6.000E-02  1.479E+00
   1   10    7     6     2    3.2691E+01  2.6584E-01   3.2425E+01  0.000E+00  0.000E+00  0.000E+00  1.03961E+03  1.431E+00  1.200E+01  6.000E-02  1.477E+00
   1   11    7     6     3    3.2425E+01  2.6542E-01   3.2159E+01  0.000E+00  0.000E+00  0.000E+00  1.03506E+03  1.424E+00  1.200E+01  6.000E-02  1.475E+00
   1   12    7     6     4    3.2159E+01  2.6500E-01   3.1894E+01  0.000E+00  0.000E+00  0.000E+00  1.03051E+03  1.417E+00  1.200E+01  6.000E-02  1.472E+00
   1   13    7     6     5    3.1894E+01  6.0554E-03   3.1888E+01  0.000E+00  0.000E+00  0.000E+00  1.02732E+03  1.413E+00  1.200E+01  2.400E-02  8.410E-02
   1   14    9     7     1    1.5000E+02  1.3411E+00   1.4866E+02  0.000E+00  0.000E+00  0.000E+00  1.03987E+03  2.288E+00  5.529E+01  5.593E-01  7.993E-01
   1   13    8     7     2    1.4866E+02  1.8366E+00   1.4682E+02  0.000E+00  0.000E+00  0.000E+00  1.03478E+03  2.279E+00  5.526E+01  6.148E-01  9.958E-01
   1   13    7     7     3    1.4682E+02  1.4631E+00   1.4536E+02  0.000E+00  0.000E+00  0.000E+00  1.02969E+03  2.270E+00  5.522E+01  5.585E-01  8.733E-01
   1   13    6     8     1    1.7725E+02  9.4664E-01   1.7630E+02  0.000E+00  0.000E+00  0.000E+00  1.02487E+03  2.996E+00  4.344E+01  4.427E-01  7.128E-01
   1   13    5     8     2    1.7630E+02  2.3053E-01   1.7607E+02  0.000E+00  0.000E+00  0.000E+00  1.01862E+03  2.992E+00  4.338E+01  4.421E-01  1.738E-01
   1   13    4     8     3    1.7607E+02 -2.2722E+00   1.7834E+02  0.000E+00  0.000E+00  0.000E+00  1.01237E+03  2.999E+00  4.348E+01  4.431E+00 -1.709E-01
   1   13    3     8     4    1.7834E+02 -3.4530E+00   1.8180E+02  0.000E+00  0.000E+00  0.000E+00  1.00614E+03  3.017E+00  4.374E+01  4.457E+00 -2.582E-01
   1   13    2     8     5    1.8180E+02 -2.6160E+00   1.8441E+02  0.000E+00  0.000E+00  0.000E+00  9.99911E+02  3.036E+00  4.402E+01  4.485E+00 -1.944E-01
   1   13    1     8     6    1.8441E+02 -1.6990E+00   1.8611E+02  0.000E+00  0.000E+00  0.000E+00  9.94924E+02  3.049E+00  4.421E+01  2.703E+00 -2.095E-01
   1    6    8     9     1    0.0000E+00  0.0000E+00   0.0000E+00  0.000E+00  0.000E+00  0.000E+00  1.07850E+03  0.000E+00  4.000E+00  0.000E+00  1.000E+00



 UBDSV3 SAVING "           GW ET" ON UNIT  61 AT TIME STEP     1, STRESS PERIOD  20
 UBDSV3 SAVING "    UZF RECHARGE" ON UNIT  61 AT TIME STEP     1, STRESS PERIOD  20
 UBDSV3 SAVING " SURFACE LEAKAGE" ON UNIT  61 AT TIME STEP     1, STRESS PERIOD  20
 UBDSV3 SAVING "       HORT+DUNN" ON UNIT  61 AT TIME STEP     1, STRESS PERIOD  20
 UBDSV3 SAVING "  STORAGE CHANGE" ON UNIT  61 AT TIME STEP     1, STRESS PERIOD  20


UNSATURATED ZONE PACKAGE VOLUMETRIC BUDGET FOR  TIME STEP     1 STRESS PERIOD   20
  ------------------------------------------------------------------------------



     CUMULATIVE VOLUMES      L**3       RATES FOR THIS TIME STEP      L**3/T
     ------------------                 ------------------------

           IN:                                      IN:
           ---                                      ---
        INFILTRATION =    89743006.8149          INFILTRATION =           6.5606

          OUT:                                     OUT:
          ----                                     ----
              UZF ET =    58363754.4857                UZF ET =           5.2054
        UZF RECHARGE =       73224.0000          UZF RECHARGE =       0.0000E+00

            IN - OUT =    31306028.3293              IN - OUT =           1.3552

          STORAGE:                                 STORAGE:
          --------                                 --------
      STORAGE CHANGE =    31304650.2816        STORAGE CHANGE =           1.3552

 PERCENT DISCREPANCY IS DIFFERENCE BETWEEN IN-OUT MINUS CHANGE IN STORAGE
 DIVIDED BY THE AVERAGE OF IN AND OUT TIMES 100

 PERCENT DISCREPANCY =           0.00     PERCENT DISCREPANCY =           0.00






 

 AWU WELLS                PERIOD   20   STEP   1
 AWU WELL      1   LAYER   1   ROW     6   COL     4   RATE    -1.09344    
 AWU WELL      2   LAYER   1   ROW     6   COL     5   RATE    -1.09344    
 AWU WELL      3   LAYER   1   ROW     7   COL     4   RATE    -1.09344    
 AWU WELL      4   LAYER   1   ROW     7   COL     5   RATE    -1.09344    
 AWU WELL      5   LAYER   1   ROW     8   COL     4   RATE    -1.09344    
 AWU WELL      6   LAYER   1   ROW     8   COL     5   RATE    -1.09344    
 
 

 GW IRRIGATION            PERIOD   20   STEP   1
 AWU WELL      1   ROW     6   COL     4   RATE     1.09344    
 AWU WELL      2   ROW     6   COL     5   RATE     1.09344    
 AWU WELL      3   ROW     7   COL     4   RATE     1.09344    
 AWU WELL      4   ROW     7   COL     5   RATE     1.09344    
 AWU WELL      5   ROW     8   COL     4   RATE     1.09344    
 AWU WELL      6   ROW     8   COL     5   RATE     1.09344    
 
1
  VOLUMETRIC BUDGET FOR ENTIRE MODEL AT END OF TIME STEP    1, STRESS PERIOD  20
  ------------------------------------------------------------------------------

     CUMULATIVE VOLUMES      L**3       RATES FOR THIS TIME STEP      L**3/T
     ------------------                 ------------------------

           IN:                                      IN:
           ---                                      ---
    AWU WELLS            =    89669760.0000      AWU WELLS            =           6.5606
    DIVERSION SEGMENTS   =           0.0000      DIVERSION SEGMENTS   =           0.0000
    GW IRRIGATION        =           0.0000      GW IRRIGATION        =           0.0000
    SW IRRIGATION        =           0.0000      SW IRRIGATION        =           0.0000
    EFFICIENCY FACTOR GW =           0.0000      EFFICIENCY FACTOR GW =           0.0000
    EFFICIENCY FACTOR SW =           0.0000      EFFICIENCY FACTOR SW =           0.0000

                TOTAL IN =    89669760.0000                  TOTAL IN =           6.5606

          OUT:                                     OUT:
          ----                                     ----
    AWU WELLS            =           0.0000      AWU WELLS            =           0.0000
    DIVERSION SEGMENTS   =           0.0000      DIVERSION SEGMENTS   =           0.0000
    GW IRRIGATION        =    89669760.0000      GW IRRIGATION        =           6.5606
    SW IRRIGATION        =           0.0000      SW IRRIGATION        =           0.0000
    EFFICIENCY FACTOR GW =           0.0000      EFFICIENCY FACTOR GW =           0.0000
    EFFICIENCY FACTOR SW =           0.0000      EFFICIENCY FACTOR SW =           0.0000

               TOTAL OUT =    89669760.0000                 TOTAL OUT =           6.5606

                IN - OUT =           0.0000                  IN - OUT =           0.0000

     PERCENT DISCREPANCY =           0.00         PERCENT DISCREPANCY =           0.00



1
  VOLUMETRIC BUDGET FOR ENTIRE MODEL AT END OF TIME STEP    1, STRESS PERIOD  20
  ------------------------------------------------------------------------------

     CUMULATIVE VOLUMES      L**3       RATES FOR THIS TIME STEP      L**3/T
     ------------------                 ------------------------

           IN:                                      IN:
           ---                                      ---
             STORAGE     =   156727312.0000               STORAGE     =          11.2072
       CONSTANT HEAD     =           0.0000         CONSTANT HEAD     =           0.0000
     HEAD DEP BOUNDS     =    13576192.0000       HEAD DEP BOUNDS     =           0.2861
      STREAM LEAKAGE     =   564555072.0000        STREAM LEAKAGE     =          11.9296
        UZF RECHARGE     =       73223.9531          UZF RECHARGE     =           0.0000
               GW ET     =           0.0000                 GW ET     =           0.0000
     SURFACE LEAKAGE     =           0.0000       SURFACE LEAKAGE     =           0.0000
    AWU WELLS            =           0.0000      AWU WELLS            =           0.0000

                TOTAL IN =   734931776.0000                  TOTAL IN =          23.4229

          OUT:                                     OUT:
          ----                                     ----
             STORAGE     =   100009904.0000               STORAGE     =           0.4615
       CONSTANT HEAD     =           0.0000         CONSTANT HEAD     =           0.0000
     HEAD DEP BOUNDS     =    13654621.0000       HEAD DEP BOUNDS     =           0.2870
      STREAM LEAKAGE     =   464780800.0000        STREAM LEAKAGE     =          10.0403
        UZF RECHARGE     =           0.0000          UZF RECHARGE     =           0.0000
               GW ET     =    66811480.0000                 GW ET     =           6.0740
     SURFACE LEAKAGE     =           0.0000       SURFACE LEAKAGE     =           0.0000
    AWU WELLS            =    89669760.0000      AWU WELLS            =           6.5606

               TOTAL OUT =   734926528.0000                 TOTAL OUT =          23.4234

                IN - OUT =        5248.0000                  IN - OUT =      -5.3406E-04

     PERCENT DISCREPANCY =           0.00         PERCENT DISCREPANCY =          -0.00






         TIME SUMMARY AT END OF TIME STEP    1 IN STRESS PERIOD   20
                    SECONDS     MINUTES      HOURS       DAYS        YEARS
                    -----------------------------------------------------------
   TIME STEP LENGTH  87600.      1460.0      24.333      1.0139     2.77588E-03
 STRESS PERIOD TIME  87600.      1460.0      24.333      1.0139     2.77588E-03
         TOTAL TIME 4.74780E+07 7.91300E+05  13188.      549.51      1.5045    
1
 
 SOLVING FOR HEAD 
                                                   Max.-Head-Change                         Max.-Flux-Residual
  Residual-Control   Outer-Iter.   Inner-Iter.     Column Row Layer    Maximum-Head-Change  Column Row Layer    Maximum-Flux-Residual          L2-NORM 
          0                 1           2             4   13     1      -0.1881448919E-01       4   13    1        -0.1077120835E+01      0.2541447250E+01
          0                 2           2             4   13     1       0.1843483048E-02       4   13    1         0.1065117977E+00      0.2501886404E+00
          0                 3           2             4   13     1      -0.1623721619E-03       4   13    1        -0.9468019126E-02      0.2214229246E-01
          0                 4           1             4   13     1       0.1270521324E-04       4   13    1         0.7476807223E-03      0.1741562806E-02

    ------------------------------------------------
       NWT REQUIRED            4 OUTER ITERATIONS 
       AND A TOTAL OF          7 INNER ITERATIONS.
    ------------------------------------------------

 NO OUTPUT CONTROL FOR STRESS PERIOD   20   TIME STEP    2
 
 SOLVING FOR HEAD 
                                                   Max.-Head-Change                         Max.-Flux-Residual
  Residual-Control   Outer-Iter.   Inner-Iter.     Column Row Layer    Maximum-Head-Change  Column Row Layer    Maximum-Flux-Residual          L2-NORM 
          0                 1           2             4   13     1      -0.2191182634E-01       4   13    1        -0.1253433981E+01      0.2736108143E+01
          0                 2           2             4   13     1       0.2156084004E-02       4   13    1         0.1244771580E+00      0.2692023269E+00
          0                 3           2             4   13     1      -0.1901259473E-03       4   13    1        -0.1107795809E-01      0.2377216603E-01
          0                 4           1             4   13     1       0.1490325931E-04       4   13    1         0.8763818269E-03      0.1865364237E-02

    ------------------------------------------------
       NWT REQUIRED            4 OUTER ITERATIONS 
       AND A TOTAL OF          7 INNER ITERATIONS.
    ------------------------------------------------

 NO OUTPUT CONTROL FOR STRESS PERIOD   20   TIME STEP    3
 
 SOLVING FOR HEAD 
                                                   Max.-Head-Change                         Max.-Flux-Residual
  Residual-Control   Outer-Iter.   Inner-Iter.     Column Row Layer    Maximum-Head-Change  Column Row Layer    Maximum-Flux-Residual          L2-NORM 
          0                 1           2             4   13     1      -0.2299114624E-01       4   13    1        -0.1313831292E+01      0.2802629634E+01
          0                 2           2             4   13     1       0.2253908474E-02       4   13    1         0.1299880040E+00      0.2749855864E+00
          0                 3           2             4   13     1      -0.1986384893E-03       4   13    1        -0.1156170551E-01      0.2424625070E-01
          0                 4           1             4   13     1       0.1556151448E-04       4   13    1         0.9141115888E-03      0.1899480127E-02

    ------------------------------------------------
       NWT REQUIRED            4 OUTER ITERATIONS 
       AND A TOTAL OF          7 INNER ITERATIONS.
    ------------------------------------------------

 NO OUTPUT CONTROL FOR STRESS PERIOD   20   TIME STEP    4
 
 SOLVING FOR HEAD 
                                                   Max.-Head-Change                         Max.-Flux-Residual
  Residual-Control   Outer-Iter.   Inner-Iter.     Column Row Layer    Maximum-Head-Change  Column Row Layer    Maximum-Flux-Residual          L2-NORM 
          0                 1           2             4   13     1      -0.2094624947E-01       4   13    1        -0.1196025884E+01      0.2615284285E+01
          0                 2           2             4   13     1       0.2052948826E-02       4   13    1         0.1183033556E+00      0.2566489727E+00
          0                 3           2             4   13     1      -0.1808892031E-03       4   13    1        -0.1052008613E-01      0.2263398975E-01
          0                 4           1             4   13     1       0.1416239012E-04       4   13    1         0.8312415584E-03      0.1773662157E-02

    ------------------------------------------------
       NWT REQUIRED            4 OUTER ITERATIONS 
       AND A TOTAL OF          7 INNER ITERATIONS.
    ------------------------------------------------

 NO OUTPUT CONTROL FOR STRESS PERIOD   20   TIME STEP    5
 
 SOLVING FOR HEAD 
                                                   Max.-Head-Change                         Max.-Flux-Residual
  Residual-Control   Outer-Iter.   Inner-Iter.     Column Row Layer    Maximum-Head-Change  Column Row Layer    Maximum-Flux-Residual          L2-NORM 
          0                 1           2             4   13     1      -0.1909928736E-01       4   13    1        -0.1089668840E+01      0.2445729205E+01
          0                 2           2             4   13     1       0.1871463568E-02       4   13    1         0.1077555305E+00      0.2400679056E+00
          0                 3           2             4   13     1      -0.1648508223E-03       4   13    1        -0.9579267177E-02      0.2117733264E-01
          0                 4           1             4   13     1       0.1291677831E-04       4   13    1         0.7574991505E-03      0.1660193019E-02

    ------------------------------------------------
       NWT REQUIRED            4 OUTER ITERATIONS 
       AND A TOTAL OF          7 INNER ITERATIONS.
    ------------------------------------------------

 NO OUTPUT CONTROL FOR STRESS PERIOD   20   TIME STEP    6
 
 SOLVING FOR HEAD 
                                                   Max.-Head-Change                         Max.-Flux-Residual
  Residual-Control   Outer-Iter.   Inner-Iter.     Column Row Layer    Maximum-Head-Change  Column Row Layer    Maximum-Flux-Residual          L2-NORM 
          0                 1           2             4   13     1      -0.1743042765E-01       4   13    1        -0.9936102836E+00      0.2291903816E+01
          0                 2           2             4   13     1       0.1707505138E-02       4   13    1         0.9823060165E-01      0.2250342559E+00
          0                 3           2             4   13     1      -0.1503358939E-03       4   13    1        -0.8728186234E-02      0.1985668152E-01
          0                 4           1             4   13     1       0.1174439493E-04       4   13    1         0.6880955289E-03      0.1556622805E-02

    ------------------------------------------------
       NWT REQUIRED            4 OUTER ITERATIONS 
       AND A TOTAL OF          7 INNER ITERATIONS.
    ------------------------------------------------

 NO OUTPUT CONTROL FOR STRESS PERIOD   20   TIME STEP    7
 
 SOLVING FOR HEAD 
                                                   Max.-Head-Change                         Max.-Flux-Residual
  Residual-Control   Outer-Iter.   Inner-Iter.     Column Row Layer    Maximum-Head-Change  Column Row Layer    Maximum-Flux-Residual          L2-NORM 
          0                 1           2             4   13     1      -0.1592165810E-01       4   13    1        -0.9068054406E+00      0.2152240167E+01
          0                 2           2             4   13     1       0.1559318446E-02       4   13    1         0.8962571701E-01      0.2113988095E+00
          0                 3           2             4   13     1      -0.1372636340E-03       4   13    1        -0.7962065426E-02      0.1866190198E-01
          0                 4           1             4   13     1       0.1072939739E-04       4   13    1         0.6280834396E-03      0.1463707911E-02

    ------------------------------------------------
       NWT REQUIRED            4 OUTER ITERATIONS 
       AND A TOTAL OF          7 INNER ITERATIONS.
    ------------------------------------------------

 NO OUTPUT CONTROL FOR STRESS PERIOD   20   TIME STEP    8
 
 SOLVING FOR HEAD 
                                                   Max.-Head-Change                         Max.-Flux-Residual
  Residual-Control   Outer-Iter.   Inner-Iter.     Column Row Layer    Maximum-Head-Change  Column Row Layer    Maximum-Flux-Residual          L2-NORM 
          0                 1           2             1   13     1      -0.1486805904E-01       4   13    1        -0.8283385253E+00      0.2025496847E+01
          0                 2           2             4   13     1       0.1425291850E-02       4   13    1         0.8184670410E-01      0.1990314696E+00
          0                 3           2             4   13     1      -0.1254375731E-03       4   13    1        -0.7269274672E-02      0.1757809710E-01
          0                 4           1             4   13     1       0.9809939939E-05       4   13    1         0.5737033671E-03      0.1379850951E-02

    ------------------------------------------------
       NWT REQUIRED            4 OUTER ITERATIONS 
       AND A TOTAL OF          7 INNER ITERATIONS.
    ------------------------------------------------

 NO OUTPUT CONTROL FOR STRESS PERIOD   20   TIME STEP    9
 
 SOLVING FOR HEAD 
                                                   Max.-Head-Change                         Max.-Flux-Residual
  Residual-Control   Outer-Iter.   Inner-Iter.     Column Row Layer    Maximum-Head-Change  Column Row Layer    Maximum-Flux-Residual          L2-NORM 
          0                 1           2             5   13     1      -0.1071975497E-01       1   13    1        -0.5872477956E+00      0.1470599580E+01
          0                 2           2             5   13     1       0.1063796563E-02       5   13    1         0.5783222307E-01      0.1483664002E+00
          0                 3           1             5   13     1      -0.9485054942E-04       5   13    1        -0.5204256895E-02      0.1326185446E-01

    ------------------------------------------------
       NWT REQUIRED            3 OUTER ITERATIONS 
       AND A TOTAL OF          5 INNER ITERATIONS.
    ------------------------------------------------

 NO OUTPUT CONTROL FOR STRESS PERIOD   20   TIME STEP   10
 
 SOLVING FOR HEAD 
                                                   Max.-Head-Change                         Max.-Flux-Residual
  Residual-Control   Outer-Iter.   Inner-Iter.     Column Row Layer    Maximum-Head-Change  Column Row Layer    Maximum-Flux-Residual          L2-NORM 
          0                 1           2             5   13     1      -0.1001560377E-01       5   13    1        -0.5409129286E+00      0.1293446398E+01
          0                 2           2             5   13     1       0.9920168705E-03       5   13    1         0.5407224075E-01      0.1284517673E+00
          0                 3           1             5   13     1      -0.8842609391E-04       5   13    1        -0.4864527386E-02      0.1147691096E-01

    ------------------------------------------------
       NWT REQUIRED            3 OUTER ITERATIONS 
       AND A TOTAL OF          5 INNER ITERATIONS.
    ------------------------------------------------

 NO OUTPUT CONTROL FOR STRESS PERIOD   20   TIME STEP   11
 
 SOLVING FOR HEAD 
                                                   Max.-Head-Change                         Max.-Flux-Residual
  Residual-Control   Outer-Iter.   Inner-Iter.     Column Row Layer    Maximum-Head-Change  Column Row Layer    Maximum-Flux-Residual          L2-NORM 
          0                 1           2             5   13     1      -0.9642125980E-02       5   13    1        -0.5206628803E+00      0.1239203677E+01
          0                 2           2             5   13     1       0.9550201343E-03       5   13    1         0.5204762323E-01      0.1231000200E+00
          0                 3           1             5   13     1      -0.8512998474E-04       5   13    1        -0.4682482098E-02      0.1100213521E-01

    ------------------------------------------------
       NWT REQUIRED            3 OUTER ITERATIONS 
       AND A TOTAL OF          5 INNER ITERATIONS.
    ------------------------------------------------

 NO OUTPUT CONTROL FOR STRESS PERIOD   20   TIME STEP   12
 
 SOLVING FOR HEAD 
                                                   Max.-Head-Change                         Max.-Flux-Residual
  Residual-Control   Outer-Iter.   Inner-Iter.     Column Row Layer    Maximum-Head-Change  Column Row Layer    Maximum-Flux-Residual          L2-NORM 
          0                 1           2             5   13     1      -0.9284163719E-02       5   13    1        -0.5012514615E+00      0.1189657251E+01
          0                 2           2             5   13     1       0.9195617939E-03       5   13    1         0.5010693990E-01      0.1182133763E+00
          0                 3           1             5   13     1      -0.8196970665E-04       5   13    1        -0.4507902325E-02      0.1056897377E-01

    ------------------------------------------------
       NWT REQUIRED            3 OUTER ITERATIONS 
       AND A TOTAL OF          5 INNER ITERATIONS.
    ------------------------------------------------

 NO OUTPUT CONTROL FOR STRESS PERIOD   20   TIME STEP   13
 
 SOLVING FOR HEAD 
                                                   Max.-Head-Change                         Max.-Flux-Residual
  Residual-Control   Outer-Iter.   Inner-Iter.     Column Row Layer    Maximum-Head-Change  Column Row Layer    Maximum-Flux-Residual          L2-NORM 
          0                 1           2             5   13     1      -0.8940966405E-02       5   13    1        -0.4826386371E+00      0.1144335131E+01
          0                 2           2             5   13     1       0.8855660685E-03       5   13    1         0.4824610199E-01      0.1137439804E+00
          0                 3           1             5   13     1      -0.7893974771E-04       5   13    1        -0.4340505949E-02      0.1017260450E-01

    ------------------------------------------------
       NWT REQUIRED            3 OUTER ITERATIONS 
       AND A TOTAL OF          5 INNER ITERATIONS.
    ------------------------------------------------

 NO OUTPUT CONTROL FOR STRESS PERIOD   20   TIME STEP   14
 
 SOLVING FOR HEAD 
                                                   Max.-Head-Change                         Max.-Flux-Residual
  Residual-Control   Outer-Iter.   Inner-Iter.     Column Row Layer    Maximum-Head-Change  Column Row Layer    Maximum-Flux-Residual          L2-NORM 
          0                 1           2             5   13     1      -0.8612161950E-02       5   13    1        -0.4648047538E+00      0.1102815511E+01
          0                 2           2             5   13     1       0.8529928322E-03       5   13    1         0.4646297564E-01      0.1096496185E+00
          0                 3           1             5   13     1      -0.7603208548E-04       5   13    1        -0.4179866149E-02      0.9809055103E-02

    ------------------------------------------------
       NWT REQUIRED            3 OUTER ITERATIONS 
       AND A TOTAL OF          5 INNER ITERATIONS.
    ------------------------------------------------

 NO OUTPUT CONTROL FOR STRESS PERIOD   20   TIME STEP   15
 
 SOLVING FOR HEAD 
                                                   Max.-Head-Change                         Max.-Flux-Residual
  Residual-Control   Outer-Iter.   Inner-Iter.     Column Row Layer    Maximum-Head-Change  Column Row Layer    Maximum-Flux-Residual          L2-NORM 
          0                 1           2             5   13     1      -0.8296910140E-02       5   13    1        -0.4477048946E+00      0.1064762222E+01
          0                 2           2             5   13     1       0.8217645357E-03       5   13    1         0.4475336831E-01      0.1058974804E+00
          0                 3           1             5   13     1      -0.7324974373E-04       5   13    1        -0.4026132846E-02      0.9476161328E-02

    ------------------------------------------------
       NWT REQUIRED            3 OUTER ITERATIONS 
       AND A TOTAL OF          5 INNER ITERATIONS.
    ------------------------------------------------

 NO OUTPUT CONTROL FOR STRESS PERIOD   20   TIME STEP   16
 
 SOLVING FOR HEAD 
                                                   Max.-Head-Change                         Max.-Flux-Residual
  Residual-Control   Outer-Iter.   Inner-Iter.     Column Row Layer    Maximum-Head-Change  Column Row Layer    Maximum-Flux-Residual          L2-NORM 
          0                 1           2             1   13     1      -0.1076306789E-01       4   13    1        -0.6046392765E+00      0.1508300877E+01
          0                 2           2             4   13     1       0.1064380956E-02       4   13    1         0.6110486643E-01      0.1573329549E+00
          0                 3           1             4   13     1      -0.9400065735E-04       4   13    1        -0.5446145378E-02      0.1410413415E-01

    ------------------------------------------------
       NWT REQUIRED            3 OUTER ITERATIONS 
       AND A TOTAL OF          5 INNER ITERATIONS.
    ------------------------------------------------

 NO OUTPUT CONTROL FOR STRESS PERIOD   20   TIME STEP   17
 
 SOLVING FOR HEAD 
                                                   Max.-Head-Change                         Max.-Flux-Residual
  Residual-Control   Outer-Iter.   Inner-Iter.     Column Row Layer    Maximum-Head-Change  Column Row Layer    Maximum-Flux-Residual          L2-NORM 
          0                 1           2             1   13     1      -0.1065753291E-01       4   13    1        -0.5945201153E+00      0.1495948775E+01
          0                 2           2             4   13     1       0.1023271551E-02       4   13    1         0.5870139992E-01      0.1470576513E+00
          0                 3           1             4   13     1      -0.8998930862E-04       4   13    1        -0.5209599365E-02      0.1299517021E-01

    ------------------------------------------------
       NWT REQUIRED            3 OUTER ITERATIONS 
       AND A TOTAL OF          5 INNER ITERATIONS.
    ------------------------------------------------

 NO OUTPUT CONTROL FOR STRESS PERIOD   20   TIME STEP   18
 
 SOLVING FOR HEAD 
                                                   Max.-Head-Change                         Max.-Flux-Residual
  Residual-Control   Outer-Iter.   Inner-Iter.     Column Row Layer    Maximum-Head-Change  Column Row Layer    Maximum-Flux-Residual          L2-NORM 
          0                 1           2             1   13     1      -0.1015168754E-01       1   13    1        -0.5549737477E+00      0.1423705783E+01
          0                 2           2             1   13     1       0.9724714898E-03       4   13    1         0.5370922002E-01      0.1400582006E+00
          0                 3           1             1   13     1      -0.8354066420E-04       4   13    1        -0.4764938373E-02      0.1238610470E-01

    ------------------------------------------------
       NWT REQUIRED            3 OUTER ITERATIONS 
       AND A TOTAL OF          5 INNER ITERATIONS.
    ------------------------------------------------

 NO OUTPUT CONTROL FOR STRESS PERIOD   20   TIME STEP   19
 
 SOLVING FOR HEAD 
                                                   Max.-Head-Change                         Max.-Flux-Residual
  Residual-Control   Outer-Iter.   Inner-Iter.     Column Row Layer    Maximum-Head-Change  Column Row Layer    Maximum-Flux-Residual          L2-NORM 
          0                 1           2             1   13     1      -0.9668002358E-02       1   13    1        -0.5285963193E+00      0.1357996855E+01
          0                 2           2             1   13     1       0.9268197351E-03       1   13    1         0.5114229960E-01      0.1336942957E+00
          0                 3           1             1   13     1      -0.7968000932E-04       1   13    1        -0.4437517422E-02      0.1183283077E-01

    ------------------------------------------------
       NWT REQUIRED            3 OUTER ITERATIONS 
       AND A TOTAL OF          5 INNER ITERATIONS.
    ------------------------------------------------

 NO OUTPUT CONTROL FOR STRESS PERIOD   20   TIME STEP   20
 
 SOLVING FOR HEAD 
                                                   Max.-Head-Change                         Max.-Flux-Residual
  Residual-Control   Outer-Iter.   Inner-Iter.     Column Row Layer    Maximum-Head-Change  Column Row Layer    Maximum-Flux-Residual          L2-NORM 
          0                 1           2             1   13     1      -0.9205656715E-02       1   13    1        -0.5033768619E+00      0.1298202659E+01
          0                 2           2             1   13     1       0.8831141055E-03       1   13    1         0.4873644781E-01      0.1279049643E+00
          0                 3           1             1   13     1      -0.7597397755E-04       1   13    1        -0.4231634801E-02      0.1132904092E-01

    ------------------------------------------------
       NWT REQUIRED            3 OUTER ITERATIONS 
       AND A TOTAL OF          5 INNER ITERATIONS.
    ------------------------------------------------

 NO OUTPUT CONTROL FOR STRESS PERIOD   20   TIME STEP   21
 
 SOLVING FOR HEAD 
                                                   Max.-Head-Change                         Max.-Flux-Residual
  Residual-Control   Outer-Iter.   Inner-Iter.     Column Row Layer    Maximum-Head-Change  Column Row Layer    Maximum-Flux-Residual          L2-NORM 
          0                 1           2             1   13     1      -0.8763912647E-02       1   13    1        -0.4792758810E+00      0.1243756369E+01
          0                 2           2             1   13     1       0.8413053299E-03       1   13    1         0.4643448477E-01      0.1226359849E+00
          0                 3           1             1   13     1      -0.7243823421E-04       1   13    1        -0.4035163126E-02      0.1087248629E-01

    ------------------------------------------------
       NWT REQUIRED            3 OUTER ITERATIONS 
       AND A TOTAL OF          5 INNER ITERATIONS.
    ------------------------------------------------

 NO OUTPUT CONTROL FOR STRESS PERIOD   20   TIME STEP   22
 
 SOLVING FOR HEAD 
                                                   Max.-Head-Change                         Max.-Flux-Residual
  Residual-Control   Outer-Iter.   Inner-Iter.     Column Row Layer    Maximum-Head-Change  Column Row Layer    Maximum-Flux-Residual          L2-NORM 
          0                 1           2             1   13     1      -0.8064534590E-02       1   13    1        -0.4412051896E+00      0.1159854395E+01
          0                 2           2             5   13     1       0.7760939444E-03       1   13    1         0.4280889409E-01      0.1145432466E+00
          0                 3           1             5   13     1      -0.6916335364E-04       5   13    1        -0.3772588804E-02      0.1017266836E-01

    ------------------------------------------------
       NWT REQUIRED            3 OUTER ITERATIONS 
       AND A TOTAL OF          5 INNER ITERATIONS.
    ------------------------------------------------

 NO OUTPUT CONTROL FOR STRESS PERIOD   20   TIME STEP   23
 
 SOLVING FOR HEAD 
                                                   Max.-Head-Change                         Max.-Flux-Residual
  Residual-Control   Outer-Iter.   Inner-Iter.     Column Row Layer    Maximum-Head-Change  Column Row Layer    Maximum-Flux-Residual          L2-NORM 
          0                 1           2             5   13     1      -0.6311319924E-02       5   13    1        -0.3428759224E+00      0.8423211097E+00
          0                 2           2             7   13     1      -0.1206731451E-02       7   13    1        -0.6635025734E-01      0.1070819077E+00
          0                 3           1             7   13     1       0.1075976530E-03       7   13    1         0.5970348222E-02      0.9635178447E-02
          0                 4           1             7   13     1      -0.8538461623E-05       7   13    1        -0.4781219482E-03      0.7715545053E-03

    ------------------------------------------------
       NWT REQUIRED            4 OUTER ITERATIONS 
       AND A TOTAL OF          6 INNER ITERATIONS.
    ------------------------------------------------

 NO OUTPUT CONTROL FOR STRESS PERIOD   20   TIME STEP   24
 
 SOLVING FOR HEAD 
                                                   Max.-Head-Change                         Max.-Flux-Residual
  Residual-Control   Outer-Iter.   Inner-Iter.     Column Row Layer    Maximum-Head-Change  Column Row Layer    Maximum-Flux-Residual          L2-NORM 
          0                 1           2             5   13     1      -0.6040300348E-02       5   13    1        -0.3278719390E+00      0.8233427439E+00
          0                 2           2             5   13     1       0.5982915521E-03       5   13    1         0.3277389211E-01      0.8232060518E-01
          0                 3           1             5   13     1      -0.5333147269E-04       5   13    1        -0.2948255995E-02      0.7407691989E-02

    ------------------------------------------------
       NWT REQUIRED            3 OUTER ITERATIONS 
       AND A TOTAL OF          5 INNER ITERATIONS.
    ------------------------------------------------

 NO OUTPUT CONTROL FOR STRESS PERIOD   20   TIME STEP   25
 
 SOLVING FOR HEAD 
                                                   Max.-Head-Change                         Max.-Flux-Residual
  Residual-Control   Outer-Iter.   Inner-Iter.     Column Row Layer    Maximum-Head-Change  Column Row Layer    Maximum-Flux-Residual          L2-NORM 
          0                 1           2             5   13     1      -0.5789848217E-02       5   13    1        -0.3140047739E+00      0.8041937666E+00
          0                 2           2             5   13     1       0.5734786709E-03       5   13    1         0.3138757007E-01      0.8041033306E-01
          0                 3           1             5   13     1      -0.5112145952E-04       5   13    1        -0.2823657092E-02      0.7236318685E-02

    ------------------------------------------------
       NWT REQUIRED            3 OUTER ITERATIONS 
       AND A TOTAL OF          5 INNER ITERATIONS.
    ------------------------------------------------

 NO OUTPUT CONTROL FOR STRESS PERIOD   20   TIME STEP   26
 
 SOLVING FOR HEAD 
                                                   Max.-Head-Change                         Max.-Flux-Residual
  Residual-Control   Outer-Iter.   Inner-Iter.     Column Row Layer    Maximum-Head-Change  Column Row Layer    Maximum-Flux-Residual          L2-NORM 
          0                 1           2             5   13     1      -0.5554401376E-02       5   13    1        -0.3009837865E+00      0.7869390744E+00
          0                 2           2             5   13     1       0.5501504337E-03       5   13    1         0.3008573197E-01      0.7868816252E-01
          0                 3           1             5   13     1      -0.4904118088E-04       5   13    1        -0.2706520886E-02      0.7081474109E-02

    ------------------------------------------------
       NWT REQUIRED            3 OUTER ITERATIONS 
       AND A TOTAL OF          5 INNER ITERATIONS.
    ------------------------------------------------

 NO OUTPUT CONTROL FOR STRESS PERIOD   20   TIME STEP   27
 
 SOLVING FOR HEAD 
                                                   Max.-Head-Change                         Max.-Flux-Residual
  Residual-Control   Outer-Iter.   Inner-Iter.     Column Row Layer    Maximum-Head-Change  Column Row Layer    Maximum-Flux-Residual          L2-NORM 
          0                 1           2             5   13     1      -0.5332897534E-02       5   13    1        -0.2887478865E+00      0.7713485037E+00
          0                 2           2             5   13     1       0.5282070845E-03       5   13    1         0.2886255226E-01      0.7713112480E-01
          0                 3           1             5   13     1      -0.4708458688E-04       5   13    1        -0.2596474273E-02      0.6941503974E-02

    ------------------------------------------------
       NWT REQUIRED            3 OUTER ITERATIONS 
       AND A TOTAL OF          5 INNER ITERATIONS.
    ------------------------------------------------

 NO OUTPUT CONTROL FOR STRESS PERIOD   20   TIME STEP   28
 
 SOLVING FOR HEAD 
                                                   Max.-Head-Change                         Max.-Flux-Residual
  Residual-Control   Outer-Iter.   Inner-Iter.     Column Row Layer    Maximum-Head-Change  Column Row Layer    Maximum-Flux-Residual          L2-NORM 
          0                 1           2             5   13     1      -0.5456572483E-02       5   13    1        -0.2938036219E+00      0.7901147567E+00
          0                 2           2             5   13     1       0.5404229051E-03       5   13    1         0.2936745414E-01      0.7887717238E-01
          0                 3           1             5   13     1      -0.4817063389E-04       5   13    1        -0.2641860243E-02      0.7086432980E-02

    ------------------------------------------------
       NWT REQUIRED            3 OUTER ITERATIONS 
       AND A TOTAL OF          5 INNER ITERATIONS.
    ------------------------------------------------

 NO OUTPUT CONTROL FOR STRESS PERIOD   20   TIME STEP   29
 
 SOLVING FOR HEAD 
                                                   Max.-Head-Change                         Max.-Flux-Residual
  Residual-Control   Outer-Iter.   Inner-Iter.     Column Row Layer    Maximum-Head-Change  Column Row Layer    Maximum-Flux-Residual          L2-NORM 
          0                 1           2             4   13     1      -0.6592019590E-02       4   13    1        -0.3742077806E+00      0.1075562210E+01
          0                 2           2             7   13     1      -0.7501012210E-03       7   13    1        -0.4119502962E-01      0.1149505760E+00
          0                 3           1             7   13     1       0.7430056913E-04       7   13    1         0.4114922764E-02      0.1039497971E-01

    ------------------------------------------------
       NWT REQUIRED            3 OUTER ITERATIONS 
       AND A TOTAL OF          5 INNER ITERATIONS.
    ------------------------------------------------

 NO OUTPUT CONTROL FOR STRESS PERIOD   20   TIME STEP   30



 STREAM LISTING     PERIOD     20   STEP       30

 LAYER ROW COL. STREAM  RCH.  FLOW INTO     FLOW TO   FLOW OUT OF   OVRLND.     DIRECT     STREAM       STREAM     STREAM     STREAM   STREAMBED  STREAMBED
                SEG.NO.  NO.  STRM. RCH.    AQUIFER    STRM. RCH.    RUNOFF     PRECIP       ET          HEAD       DEPTH      WIDTH   CONDCTNC.   GRADIENT

   1    1    1     1     1    1.4000E+01  1.7986E-01   1.3820E+01  0.000E+00  0.000E+00  0.000E+00  1.09404E+03  9.902E-01  1.002E+01  4.508E-02  1.330E+00
   1    2    2     1     2    1.3820E+01  2.7716E-01   1.3543E+01  0.000E+00  0.000E+00  0.000E+00  1.08904E+03  9.855E-01  9.935E+00  6.954E-02  1.328E+00
   1    3    3     1     3    1.3543E+01  2.3502E-01   1.3308E+01  0.000E+00  0.000E+00  0.000E+00  1.08340E+03  9.801E-01  9.842E+00  5.905E-02  1.327E+00
   1    3    4     1     4    1.3308E+01  2.1532E-01   1.3093E+01  0.000E+00  0.000E+00  0.000E+00  1.07838E+03  9.753E-01  9.759E+00  5.416E-02  1.325E+00
   1    4    5     2     1    1.1093E+01  2.9139E-01   1.0801E+01  0.000E+00  0.000E+00  0.000E+00  1.07267E+03  7.357E-01  1.200E+01  7.800E-02  1.245E+00
   1    5    6     2     2    1.0801E+01  2.2352E-01   1.0578E+01  0.000E+00  0.000E+00  0.000E+00  1.06723E+03  7.253E-01  1.200E+01  6.000E-02  1.242E+00
   1    6    6     2     3    1.0578E+01  2.2297E-01   1.0355E+01  0.000E+00  0.000E+00  0.000E+00  1.06251E+03  7.162E-01  1.200E+01  6.000E-02  1.239E+00
   1    7    6     2     4    1.0355E+01  2.2242E-01   1.0132E+01  0.000E+00  0.000E+00  0.000E+00  1.05778E+03  7.070E-01  1.200E+01  6.000E-02  1.236E+00
   1    8    6     2     5    1.0132E+01  2.2187E-01   9.9105E+00  0.000E+00  0.000E+00  0.000E+00  1.05306E+03  6.978E-01  1.200E+01  6.000E-02  1.233E+00
   1    3    5     3     1    2.0000E+00  2.8252E-01   1.7175E+00  0.000E+00  0.000E+00  0.000E+00  1.07555E+03  1.909E+00  9.636E+00  7.227E-02  1.955E+00
   1    3    6     3     2    1.7175E+00  2.4905E-01   1.4684E+00  0.000E+00  0.000E+00  0.000E+00  1.07264E+03  1.727E+00  8.909E+00  6.682E-02  1.864E+00
   1    3    7     3     3    1.4684E+00  1.9718E-01   1.2712E+00  0.000E+00  0.000E+00  0.000E+00  1.06987E+03  1.555E+00  8.218E+00  5.547E-02  1.777E+00
   1    4    8     3     4    1.2712E+00  2.2567E-01   1.0456E+00  0.000E+00  0.000E+00  0.000E+00  1.06682E+03  1.364E+00  7.455E+00  6.709E-02  1.682E+00
   1    5    8     3     5    1.0456E+00  1.5790E-01   8.8768E-01  0.000E+00  0.000E+00  0.000E+00  1.06362E+03  1.164E+00  6.655E+00  4.991E-02  1.582E+00
   1    6    8     3     6    8.8768E-01  5.5980E-02   8.3170E-01  0.000E+00  0.000E+00  0.000E+00  1.06158E+03  1.036E+00  6.145E+00  1.844E-02  1.518E+00
   1    5   10     4     1    1.0000E+01  9.0919E-02   9.9091E+00  0.000E+00  0.000E+00  0.000E+00  1.07836E+03  6.368E-01  1.000E+01  2.500E-02  1.212E+00
   1    5    9     4     2    9.9091E+00  1.8158E-01   9.7275E+00  0.000E+00  0.000E+00  0.000E+00  1.07154E+03  6.315E-01  1.000E+01  5.000E-02  1.211E+00
   1    6    8     4     3    9.7275E+00  1.2689E-01   9.6006E+00  0.000E+00  0.000E+00  0.000E+00  1.06381E+03  6.256E-01  1.000E+01  3.500E-02  1.209E+00
   1    6    8     5     1    1.0432E+01  2.2686E-01   1.0205E+01  0.000E+00  0.000E+00  0.000E+00  1.05868E+03  6.790E-01  1.542E+01  6.166E-02  1.226E+00
   1    7    7     5     2    1.0205E+01  2.7894E-01   9.9265E+00  0.000E+00  0.000E+00  0.000E+00  1.05417E+03  6.732E-01  1.519E+01  7.594E-02  1.224E+00
   1    8    7     5     3    9.9265E+00  1.9221E-01   9.7343E+00  0.000E+00  0.000E+00  0.000E+00  1.04992E+03  6.676E-01  1.497E+01  5.241E-02  1.223E+00
   1    8    6     5     4    9.7343E+00  1.3577E-01   9.5985E+00  0.000E+00  0.000E+00  0.000E+00  1.04691E+03  6.637E-01  1.482E+01  3.706E-02  1.221E+00
   1    9    6     6     1    1.5308E+01  2.3433E-01   1.5074E+01  0.000E+00  0.000E+00  0.000E+00  1.04363E+03  9.056E-01  1.200E+01  6.000E-02  1.302E+00
   1   10    7     6     2    1.5074E+01  2.3383E-01   1.4840E+01  0.000E+00  0.000E+00  0.000E+00  1.03908E+03  8.972E-01  1.200E+01  6.000E-02  1.299E+00
   1   11    7     6     3    1.4840E+01  2.3332E-01   1.4607E+01  0.000E+00  0.000E+00  0.000E+00  1.03453E+03  8.887E-01  1.200E+01  6.000E-02  1.296E+00
   1   12    7     6     4    1.4607E+01  2.3282E-01   1.4374E+01  0.000E+00  0.000E+00  0.000E+00  1.02997E+03  8.803E-01  1.200E+01  6.000E-02  1.293E+00
   1   13    7     6     5    1.4374E+01 -5.3403E-02   1.4427E+01  0.000E+00  0.000E+00  0.000E+00  1.02679E+03  8.770E-01  1.200E+01  2.400E-01 -7.417E-02
   1   14    9     7     1    1.5000E+02  1.3411E+00   1.4866E+02  0.000E+00  0.000E+00  0.000E+00  1.03987E+03  2.288E+00  5.529E+01  5.593E-01  7.993E-01
   1   13    8     7     2    1.4866E+02  1.8411E+00   1.4682E+02  0.000E+00  0.000E+00  0.000E+00  1.03478E+03  2.279E+00  5.526E+01  6.148E-01  9.983E-01
   1   13    7     7     3    1.4682E+02  1.4972E+00   1.4532E+02  0.000E+00  0.000E+00  0.000E+00  1.02969E+03  2.270E+00  5.522E+01  5.584E-01  8.937E-01
   1   13    6     8     1    1.5975E+02  9.2276E-01   1.5882E+02  0.000E+00  0.000E+00  0.000E+00  1.02476E+03  2.881E+00  4.177E+01  4.257E-01  7.225E-01
   1   13    5     8     2    1.5882E+02  2.7745E-01   1.5855E+02  0.000E+00  0.000E+00  0.000E+00  1.01850E+03  2.877E+00  4.172E+01  4.251E-01  2.176E-01
   1   13    4     8     3    1.5855E+02 -1.7360E+00   1.6028E+02  0.000E+00  0.000E+00  0.000E+00  1.01226E+03  2.882E+00  4.179E+01  4.258E+00 -1.359E-01
   1   13    3     8     4    1.6028E+02 -2.9153E+00   1.6320E+02  0.000E+00  0.000E+00  0.000E+00  1.00602E+03  2.898E+00  4.201E+01  4.281E+00 -2.270E-01
   1   13    2     8     5    1.6320E+02 -2.2392E+00   1.6544E+02  0.000E+00  0.000E+00  0.000E+00  9.99790E+02  2.915E+00  4.226E+01  4.307E+00 -1.733E-01
   1   13    1     8     6    1.6544E+02 -1.2750E+00   1.6671E+02  0.000E+00  0.000E+00  0.000E+00  9.94801E+02  2.926E+00  4.243E+01  2.594E+00 -1.638E-01
   1    6    8     9     1    4.2009E+00  0.0000E+00   4.2009E+00  0.000E+00  0.000E+00  0.000E+00  1.07882E+03  3.203E-01  4.000E+00  0.000E+00  1.107E+00





UNSATURATED ZONE PACKAGE VOLUMETRIC BUDGET FOR  TIME STEP    30 STRESS PERIOD   20
  ------------------------------------------------------------------------------



     CUMULATIVE VOLUMES      L**3       RATES FOR THIS TIME STEP      L**3/T
     ------------------                 ------------------------

           IN:                                      IN:
           ---                                      ---
        INFILTRATION =   101416432.0884          INFILTRATION =           3.9177

          OUT:                                     OUT:
          ----                                     ----
              UZF ET =    73534749.7982                UZF ET =           6.2705
        UZF RECHARGE =       73224.0000          UZF RECHARGE =       0.0000E+00

            IN - OUT =    27808458.2902              IN - OUT =          -2.3527

          STORAGE:                                 STORAGE:
          --------                                 --------
      STORAGE CHANGE =    27807080.1984        STORAGE CHANGE =          -2.3527

 PERCENT DISCREPANCY IS DIFFERENCE BETWEEN IN-OUT MINUS CHANGE IN STORAGE
 DIVIDED BY THE AVERAGE OF IN AND OUT TIMES 100

 PERCENT DISCREPANCY =           0.00     PERCENT DISCREPANCY =          -0.00






1
  VOLUMETRIC BUDGET FOR ENTIRE MODEL AT END OF TIME STEP   30, STRESS PERIOD  20
  ------------------------------------------------------------------------------

     CUMULATIVE VOLUMES      L**3       RATES FOR THIS TIME STEP      L**3/T
     ------------------                 ------------------------

           IN:                                      IN:
           ---                                      ---
    AWU WELLS            =   101343168.0000      AWU WELLS            =           3.9177
    DIVERSION SEGMENTS   =           0.0000      DIVERSION SEGMENTS   =           0.0000
    GW IRRIGATION        =           0.0000      GW IRRIGATION        =           0.0000
    SW IRRIGATION        =           0.0000      SW IRRIGATION        =           0.0000
    EFFICIENCY FACTOR GW =           0.0000      EFFICIENCY FACTOR GW =           0.0000
    EFFICIENCY FACTOR SW =           0.0000      EFFICIENCY FACTOR SW =           0.0000

                TOTAL IN =   101343168.0000                  TOTAL IN =           3.9177

          OUT:                                     OUT:
          ----                                     ----
    AWU WELLS            =           0.0000      AWU WELLS            =           0.0000
    DIVERSION SEGMENTS   =           0.0000      DIVERSION SEGMENTS   =           0.0000
    GW IRRIGATION        =   101343168.0000      GW IRRIGATION        =           3.9177
    SW IRRIGATION        =           0.0000      SW IRRIGATION        =           0.0000
    EFFICIENCY FACTOR GW =           0.0000      EFFICIENCY FACTOR GW =           0.0000
    EFFICIENCY FACTOR SW =           0.0000      EFFICIENCY FACTOR SW =           0.0000

               TOTAL OUT =   101343168.0000                 TOTAL OUT =           3.9177

                IN - OUT =           0.0000                  IN - OUT =           0.0000

     PERCENT DISCREPANCY =           0.00         PERCENT DISCREPANCY =           0.00



1
  VOLUMETRIC BUDGET FOR ENTIRE MODEL AT END OF TIME STEP   30, STRESS PERIOD  20
  ------------------------------------------------------------------------------

     CUMULATIVE VOLUMES      L**3       RATES FOR THIS TIME STEP      L**3/T
     ------------------                 ------------------------

           IN:                                      IN:
           ---                                      ---
             STORAGE     =   175762896.0000               STORAGE     =           6.7395
       CONSTANT HEAD     =           0.0000         CONSTANT HEAD     =           0.0000
     HEAD DEP BOUNDS     =    14303048.0000       HEAD DEP BOUNDS     =           0.2861
      STREAM LEAKAGE     =   594698944.0000        STREAM LEAKAGE     =          11.3050
        UZF RECHARGE     =       73223.9531          UZF RECHARGE     =           0.0000
               GW ET     =           0.0000                 GW ET     =           0.0000
     SURFACE LEAKAGE     =           0.0000       SURFACE LEAKAGE     =           0.0000
    AWU WELLS            =           0.0000      AWU WELLS            =           0.0000

                TOTAL IN =   784838144.0000                  TOTAL IN =          18.3306

          OUT:                                     OUT:
          ----                                     ----
             STORAGE     =   101057248.0000               STORAGE     =           0.2376
       CONSTANT HEAD     =           0.0000         CONSTANT HEAD     =           0.0000
     HEAD DEP BOUNDS     =    14367407.0000       HEAD DEP BOUNDS     =           0.2771
      STREAM LEAKAGE     =   486488000.0000        STREAM LEAKAGE     =           8.2188
        UZF RECHARGE     =           0.0000          UZF RECHARGE     =           0.0000
               GW ET     =    81569752.0000                 GW ET     =           5.6750
     SURFACE LEAKAGE     =           0.0000       SURFACE LEAKAGE     =           0.0000
    AWU WELLS            =   101343168.0000      AWU WELLS            =           3.9177

               TOTAL OUT =   784825536.0000                 TOTAL OUT =          18.3263

                IN - OUT =       12608.0000                  IN - OUT =       4.2782E-03

     PERCENT DISCREPANCY =           0.00         PERCENT DISCREPANCY =           0.02






         TIME SUMMARY AT END OF TIME STEP   30 IN STRESS PERIOD   20
                    SECONDS     MINUTES      HOURS       DAYS        YEARS
                    -----------------------------------------------------------
   TIME STEP LENGTH  87600.      1460.0      24.333      1.0139     2.77588E-03
 STRESS PERIOD TIME 2.62800E+06  43800.      730.00      30.417     8.32763E-02
         TOTAL TIME 5.00184E+07 8.33640E+05  13894.      578.92      1.5850    
1
1
                            STRESS PERIOD NO.   21, LENGTH =   2628000.    
                            -----------------------------------------------

                              NUMBER OF TIME STEPS =    30

                               MULTIPLIER FOR DELT =     1.000

                            INITIAL TIME STEP SIZE =   87600.00    

 REUSING NON-PARAMETER GHB CELLS FROM LAST STRESS PERIOD

      2 GHB CELLS

 REUSING STREAM SEGMENT DATA FROM LAST STRESS PERIOD



            AREAL INFILTRATION RATE
 READING ON UNIT   19 WITH FORMAT: (10F4.0)            

            1           2           3           4           5           6           7           8           9          10
 ........................................................................................................................
   1    0.000       0.000       0.000       0.000       0.000       0.000       0.000       0.000       0.000       0.000    
   2    0.000       0.000       0.000       0.000       0.000       0.000       0.000       0.000       0.000       0.000    
   3    0.000       0.000       0.000       0.000       0.000       0.000       0.000       0.000       0.000       0.000    
   4    0.000       0.000       0.000       0.000       0.000       0.000       0.000       0.000       0.000       0.000    
   5    0.000       0.000       0.000       0.000       0.000       0.000       0.000       0.000       0.000       0.000    
   6    0.000       0.000       0.000       0.000       0.000       0.000       0.000       0.000       0.000       0.000    
   7    0.000       0.000       0.000       0.000       0.000       0.000       0.000       0.000       0.000       0.000    
   8    0.000       0.000       0.000       0.000       0.000       0.000       0.000       0.000       0.000       0.000    
   9    0.000       0.000       0.000       0.000       0.000       0.000       0.000       0.000       0.000       0.000    
  10    0.000       0.000       0.000       0.000       0.000       0.000       0.000       0.000       0.000       0.000    
  11    0.000       0.000       0.000       0.000       0.000       0.000       0.000       0.000       0.000       0.000    
  12    0.000       0.000       0.000       0.000       0.000       0.000       0.000       0.000       0.000       0.000    
  13    0.000       0.000       0.000       0.000       0.000       0.000       0.000       0.000       0.000       0.000    
  14    0.000       0.000       0.000       0.000       0.000       0.000       0.000       0.000       0.000       0.000    
  15    0.000       0.000       0.000       0.000       0.000       0.000       0.000       0.000       0.000       0.000    

                  ET RATE =  8.500000E-08

 USING ET EXTINCTION DEPTH FROM PREVIOUS STRESS PERIOD. CURRENT PERIOD IS:      21

 USING EXTINCTION WATER CONTENT FROM PREVIOUS STRESS PERIOD. CURRENT PERIOD IS:      21

 PROCESSING AWU STRESS PERIOD DATA

 READING AWU STRESS PERIOD DATA

 READING IRRIGATION WELL

 END PROCESSING AWU STRESS PERIOD DATA OPTIONS
 
 SOLVING FOR HEAD 
                                                   Max.-Head-Change                         Max.-Flux-Residual
  Residual-Control   Outer-Iter.   Inner-Iter.     Column Row Layer    Maximum-Head-Change  Column Row Layer    Maximum-Flux-Residual          L2-NORM 
          0                 1           2             4   13     1      -0.1749991251E-01       4   13    1        -0.9978513401E+00      0.2297128853E+01
          0                 2           2             4   13     1       0.1713006987E-02       4   13    1         0.9857309966E-01      0.2258031877E+00
          0                 3           2             4   13     1      -0.1507406159E-03       4   13    1        -0.8753909831E-02      0.1995175387E-01
          0                 4           1             4   13     1       0.1179354506E-04       4   13    1         0.6911728542E-03      0.1567206563E-02

    ------------------------------------------------
       NWT REQUIRED            4 OUTER ITERATIONS 
       AND A TOTAL OF          7 INNER ITERATIONS.
    ------------------------------------------------

 NO OUTPUT CONTROL FOR STRESS PERIOD   21   TIME STEP    1
 
 SOLVING FOR HEAD 
                                                   Max.-Head-Change                         Max.-Flux-Residual
  Residual-Control   Outer-Iter.   Inner-Iter.     Column Row Layer    Maximum-Head-Change  Column Row Layer    Maximum-Flux-Residual          L2-NORM 
          0                 1           2             4   13     1      -0.1598268141E-01       4   13    1        -0.9104886019E+00      0.2184551638E+01
          0                 2           2             4   13     1       0.1564056390E-02       4   13    1         0.8991681778E-01      0.2149043683E+00
          0                 3           2             4   13     1      -0.1375768595E-03       4   13    1        -0.7981729590E-02      0.1900568123E-01
          0                 4           1             4   13     1       0.1074946589E-04       4   13    1         0.6293483520E-03      0.1493795849E-02

    ------------------------------------------------
       NWT REQUIRED            4 OUTER ITERATIONS 
       AND A TOTAL OF          7 INNER ITERATIONS.
    ------------------------------------------------

 NO OUTPUT CONTROL FOR STRESS PERIOD   21   TIME STEP    2
 
 SOLVING FOR HEAD 
                                                   Max.-Head-Change                         Max.-Flux-Residual
  Residual-Control   Outer-Iter.   Inner-Iter.     Column Row Layer    Maximum-Head-Change  Column Row Layer    Maximum-Flux-Residual          L2-NORM 
          0                 1           2             4   13     1      -0.1461141563E-01       4   13    1        -0.8315679047E+00      0.2088094464E+01
          0                 2           2             4   13     1       0.1429449083E-02       4   13    1         0.8209781993E-01      0.2055975857E+00
          0                 3           2             4   13     1      -0.1256944240E-03       4   13    1        -0.7285089823E-02      0.1820075051E-01
          0                 4           1             4   13     1       0.9800241400E-05       4   13    1         0.5731671008E-03      0.1431727079E-02

    ------------------------------------------------
       NWT REQUIRED            4 OUTER ITERATIONS 
       AND A TOTAL OF          7 INNER ITERATIONS.
    ------------------------------------------------

 NO OUTPUT CONTROL FOR STRESS PERIOD   21   TIME STEP    3
 
 SOLVING FOR HEAD 
                                                   Max.-Head-Change                         Max.-Flux-Residual
  Residual-Control   Outer-Iter.   Inner-Iter.     Column Row Layer    Maximum-Head-Change  Column Row Layer    Maximum-Flux-Residual          L2-NORM 
          0                 1           2             4    7     1      -0.1950644823E-01       4    7    1        -0.1020165669E+01      0.2955812331E+01
          0                 2           2             4    7     1       0.1932907659E-02       4    7    1         0.1020163107E+00      0.2936167051E+00
          0                 3           2             4    7     1      -0.1723817333E-03       4    7    1        -0.9181471621E-02      0.2624232512E-01
          0                 4           1             4    7     1       0.1368248630E-04       4    7    1         0.7354360409E-03      0.2086298378E-02

    ------------------------------------------------
       NWT REQUIRED            4 OUTER ITERATIONS 
       AND A TOTAL OF          7 INNER ITERATIONS.
    ------------------------------------------------

 NO OUTPUT CONTROL FOR STRESS PERIOD   21   TIME STEP    4
 
 SOLVING FOR HEAD 
                                                   Max.-Head-Change                         Max.-Flux-Residual
  Residual-Control   Outer-Iter.   Inner-Iter.     Column Row Layer    Maximum-Head-Change  Column Row Layer    Maximum-Flux-Residual          L2-NORM 
          0                 1           2             4    7     1      -0.2029506657E-01       4    7    1        -0.1061679452E+01      0.2974245069E+01
          0                 2           2             4    7     1       0.2011052056E-02       4    7    1         0.1061676558E+00      0.2957384661E+00
          0                 3           2             4    7     1      -0.1793508576E-03       4    7    1        -0.9555093058E-02      0.2645871880E-01
          0                 4           1             4    7     1       0.1423564788E-04       4    7    1         0.7653631365E-03      0.2105932954E-02

    ------------------------------------------------
       NWT REQUIRED            4 OUTER ITERATIONS 
       AND A TOTAL OF          7 INNER ITERATIONS.
    ------------------------------------------------

 NO OUTPUT CONTROL FOR STRESS PERIOD   21   TIME STEP    5
 
 SOLVING FOR HEAD 
                                                   Max.-Head-Change                         Max.-Flux-Residual
  Residual-Control   Outer-Iter.   Inner-Iter.     Column Row Layer    Maximum-Head-Change  Column Row Layer    Maximum-Flux-Residual          L2-NORM 
          0                 1           2             4    7     1      -0.2006471854E-01       4    7    1        -0.1049946706E+01      0.2892432869E+01
          0                 2           2             4    7     1       0.1988226502E-02       4    7    1         0.1049943701E+00      0.2877374440E+00
          0                 3           2             4    7     1      -0.1773152170E-03       4    7    1        -0.9449497419E-02      0.2575545749E-01
          0                 4           1             4    7     1       0.1407407240E-04       4    7    1         0.7569049055E-03      0.2051144355E-02

    ------------------------------------------------
       NWT REQUIRED            4 OUTER ITERATIONS 
       AND A TOTAL OF          7 INNER ITERATIONS.
    ------------------------------------------------

 NO OUTPUT CONTROL FOR STRESS PERIOD   21   TIME STEP    6
 
 SOLVING FOR HEAD 
                                                   Max.-Head-Change                         Max.-Flux-Residual
  Residual-Control   Outer-Iter.   Inner-Iter.     Column Row Layer    Maximum-Head-Change  Column Row Layer    Maximum-Flux-Residual          L2-NORM 
          0                 1           2             4    7     1      -0.1984617543E-01       4    7    1        -0.1038803091E+01      0.2818280597E+01
          0                 2           2             4    7     1       0.1966570734E-02       4    7    1         0.1038799991E+00      0.2804855218E+00
          0                 3           2             4    7     1      -0.1753839012E-03       4    7    1        -0.9349204126E-02      0.2511846744E-01
          0                 4           1             4    7     1       0.1392077742E-04       4    7    1         0.7488714130E-03      0.2001498925E-02

    ------------------------------------------------
       NWT REQUIRED            4 OUTER ITERATIONS 
       AND A TOTAL OF          7 INNER ITERATIONS.
    ------------------------------------------------

 NO OUTPUT CONTROL FOR STRESS PERIOD   21   TIME STEP    7
 
 SOLVING FOR HEAD 
                                                   Max.-Head-Change                         Max.-Flux-Residual
  Residual-Control   Outer-Iter.   Inner-Iter.     Column Row Layer    Maximum-Head-Change  Column Row Layer    Maximum-Flux-Residual          L2-NORM 
          0                 1           2             4    7     1      -0.1963727774E-01       4    7    1        -0.1028137178E+01      0.2609592701E+01
          0                 2           2             4    7     1       0.1945870758E-02       4    7    1         0.1028133996E+00      0.2604809953E+00
          0                 3           2             4    7     1      -0.1735378247E-03       4    7    1        -0.9253210224E-02      0.2339866231E-01
          0                 4           1             4    7     1       0.1377424826E-04       4    7    1         0.7411822810E-03      0.1870584509E-02

    ------------------------------------------------
       NWT REQUIRED            4 OUTER ITERATIONS 
       AND A TOTAL OF          7 INNER ITERATIONS.
    ------------------------------------------------

 NO OUTPUT CONTROL FOR STRESS PERIOD   21   TIME STEP    8
 
 SOLVING FOR HEAD 
                                                   Max.-Head-Change                         Max.-Flux-Residual
  Residual-Control   Outer-Iter.   Inner-Iter.     Column Row Layer    Maximum-Head-Change  Column Row Layer    Maximum-Flux-Residual          L2-NORM 
          0                 1           2             4    7     1      -0.1943643534E-01       4    7    1        -0.1017867810E+01      0.2562459600E+01
          0                 2           2             4    7     1       0.1925969009E-02       4    7    1         0.1017864560E+00      0.2558167339E+00
          0                 3           2             4    7     1      -0.1717629368E-03       4    7    1        -0.9160785360E-02      0.2298371469E-01
          0                 4           1             4    7     1       0.1363337037E-04       4    7    1         0.7337790855E-03      0.1837674211E-02

    ------------------------------------------------
       NWT REQUIRED            4 OUTER ITERATIONS 
       AND A TOTAL OF          7 INNER ITERATIONS.
    ------------------------------------------------

 NO OUTPUT CONTROL FOR STRESS PERIOD   21   TIME STEP    9
 
 SOLVING FOR HEAD 
                                                   Max.-Head-Change                         Max.-Flux-Residual
  Residual-Control   Outer-Iter.   Inner-Iter.     Column Row Layer    Maximum-Head-Change  Column Row Layer    Maximum-Flux-Residual          L2-NORM 
          0                 1           2             4    7     1      -0.1924439931E-01       4    7    1        -0.1008035996E+01      0.2519120007E+01
          0                 2           2             4    7     1       0.1906939907E-02       4    7    1         0.1008032690E+00      0.2515256152E+00
          0                 3           2             4    7     1      -0.1700658730E-03       4    7    1        -0.9072298577E-02      0.2260166574E-01
          0                 4           1             4    7     1       0.1349866889E-04       4    7    1         0.7266912853E-03      0.1807588586E-02

    ------------------------------------------------
       NWT REQUIRED            4 OUTER ITERATIONS 
       AND A TOTAL OF          7 INNER ITERATIONS.
    ------------------------------------------------

 NO OUTPUT CONTROL FOR STRESS PERIOD   21   TIME STEP   10
 
 SOLVING FOR HEAD 
                                                   Max.-Head-Change                         Max.-Flux-Residual
  Residual-Control   Outer-Iter.   Inner-Iter.     Column Row Layer    Maximum-Head-Change  Column Row Layer    Maximum-Flux-Residual          L2-NORM 
          0                 1           2             4    7     1      -0.2048450224E-01       4    7    1        -0.1073016483E+01      0.2642732395E+01
          0                 2           2             4    7     1       0.2029822181E-02       4    7    1         0.1073012757E+00      0.2639480043E+00
          0                 3           2             4    7     1      -0.1810248375E-03       4    7    1        -0.9657119661E-02      0.2372508983E-01
          0                 4           1             4    7     1       0.1436851639E-04       4    7    1         0.7735354409E-03      0.1898010642E-02

    ------------------------------------------------
       NWT REQUIRED            4 OUTER ITERATIONS 
       AND A TOTAL OF          7 INNER ITERATIONS.
    ------------------------------------------------

 NO OUTPUT CONTROL FOR STRESS PERIOD   21   TIME STEP   11
 
 SOLVING FOR HEAD 
                                                   Max.-Head-Change                         Max.-Flux-Residual
  Residual-Control   Outer-Iter.   Inner-Iter.     Column Row Layer    Maximum-Head-Change  Column Row Layer    Maximum-Flux-Residual          L2-NORM 
          0                 1           2             4    7     1      -0.2459988320E-01       4    7    1        -0.1288253711E+01      0.3109466064E+01
          0                 2           2             4    7     1       0.2437616983E-02       4    7    1         0.1288248688E+00      0.3107012474E+00
          0                 3           2             4    7     1      -0.2173930508E-03       4    7    1        -0.1159424457E-01      0.2794043740E-01
          0                 4           1             4    7     1       0.1725517701E-04       4    7    1         0.9286991778E-03      0.2236272493E-02

    ------------------------------------------------
       NWT REQUIRED            4 OUTER ITERATIONS 
       AND A TOTAL OF          7 INNER ITERATIONS.
    ------------------------------------------------

 NO OUTPUT CONTROL FOR STRESS PERIOD   21   TIME STEP   12
 
 SOLVING FOR HEAD 
                                                   Max.-Head-Change                         Max.-Flux-Residual
  Residual-Control   Outer-Iter.   Inner-Iter.     Column Row Layer    Maximum-Head-Change  Column Row Layer    Maximum-Flux-Residual          L2-NORM 
          0                 1           2             4    7     1      -0.2833945807E-01       4    7    1        -0.1483938003E+01      0.3539927516E+01
          0                 2           2             4    7     1       0.2808172651E-02       4    7    1         0.1483931575E+00      0.3538009717E+00
          0                 3           2             4    7     1      -0.2504401837E-03       4    7    1        -0.1335539215E-01      0.3182446332E-01
          0                 4           1             4    7     1       0.1987823317E-04       4    7    1         0.1069767135E-02      0.2547641663E-02

    ------------------------------------------------
       NWT REQUIRED            4 OUTER ITERATIONS 
       AND A TOTAL OF          7 INNER ITERATIONS.
    ------------------------------------------------

 NO OUTPUT CONTROL FOR STRESS PERIOD   21   TIME STEP   13
 
 SOLVING FOR HEAD 
                                                   Max.-Head-Change                         Max.-Flux-Residual
  Residual-Control   Outer-Iter.   Inner-Iter.     Column Row Layer    Maximum-Head-Change  Column Row Layer    Maximum-Flux-Residual          L2-NORM 
          0                 1           2             4    7     1      -0.3164028404E-01       4    7    1        -0.1656766033E+01      0.3995371674E+01
          0                 2           2             4    7     1       0.3135252204E-02       4    7    1         0.1656758140E+00      0.3989834413E+00
          0                 3           2             4    7     1      -0.2796100053E-03       4    7    1        -0.1491083287E-01      0.3585738331E-01
          0                 4           1             4    7     1       0.2219353464E-04       4    7    1         0.1194357968E-02      0.2867971963E-02

    ------------------------------------------------
       NWT REQUIRED            4 OUTER ITERATIONS 
       AND A TOTAL OF          7 INNER ITERATIONS.
    ------------------------------------------------

 NO OUTPUT CONTROL FOR STRESS PERIOD   21   TIME STEP   14
 
 SOLVING FOR HEAD 
                                                   Max.-Head-Change                         Max.-Flux-Residual
  Residual-Control   Outer-Iter.   Inner-Iter.     Column Row Layer    Maximum-Head-Change  Column Row Layer    Maximum-Flux-Residual          L2-NORM 
          0                 1           2             4    7     1      -0.3460663474E-01       4    7    1        -0.1812169454E+01      0.4321933502E+01
          0                 2           2             4    7     1       0.3429188209E-02       4    7    1         0.1812160035E+00      0.4317459833E+00
          0                 3           2             4    7     1      -0.3058240005E-03       4    7    1        -0.1630945159E-01      0.3881578138E-01
          0                 4           1             4    7     1       0.2427422262E-04       4    7    1         0.1306387338E-02      0.3105720940E-02

    ------------------------------------------------
       NWT REQUIRED            4 OUTER ITERATIONS 
       AND A TOTAL OF          7 INNER ITERATIONS.
    ------------------------------------------------

 NO OUTPUT CONTROL FOR STRESS PERIOD   21   TIME STEP   15
 
 SOLVING FOR HEAD 
                                                   Max.-Head-Change                         Max.-Flux-Residual
  Residual-Control   Outer-Iter.   Inner-Iter.     Column Row Layer    Maximum-Head-Change  Column Row Layer    Maximum-Flux-Residual          L2-NORM 
          0                 1           2             4    7     1      -0.3743261452E-01       4    7    1        -0.1960279329E+01      0.4634762635E+01
          0                 2           2             4    7     1       0.3709214560E-02       4    7    1         0.1960268270E+00      0.4631109266E+00
          0                 3           2             4    7     1      -0.3307974981E-03       4    7    1        -0.1764242749E-01      0.4164628240E-01
          0                 4           1             4    7     1       0.2625644778E-04       4    7    1         0.1413158688E-02      0.3332937711E-02

    ------------------------------------------------
       NWT REQUIRED            4 OUTER ITERATIONS 
       AND A TOTAL OF          7 INNER ITERATIONS.
    ------------------------------------------------

 NO OUTPUT CONTROL FOR STRESS PERIOD   21   TIME STEP   16
 
 SOLVING FOR HEAD 
                                                   Max.-Head-Change                         Max.-Flux-Residual
  Residual-Control   Outer-Iter.   Inner-Iter.     Column Row Layer    Maximum-Head-Change  Column Row Layer    Maximum-Flux-Residual          L2-NORM 
          0                 1           2             4    7     1      -0.3933875487E-01       4    7    1        -0.2060358916E+01      0.4836585970E+01
          0                 2           2             4    7     1       0.3898093615E-02       4    7    1         0.2060346482E+00      0.4833516337E+00
          0                 3           2             4    7     1      -0.3476422406E-03       4    7    1        -0.1854313284E-01      0.4347351987E-01
          0                 4           1             4    7     1       0.2759346857E-04       4    7    1         0.1485305208E-02      0.3479892110E-02

    ------------------------------------------------
       NWT REQUIRED            4 OUTER ITERATIONS 
       AND A TOTAL OF          7 INNER ITERATIONS.
    ------------------------------------------------

 NO OUTPUT CONTROL FOR STRESS PERIOD   21   TIME STEP   17
 
 SOLVING FOR HEAD 
                                                   Max.-Head-Change                         Max.-Flux-Residual
  Residual-Control   Outer-Iter.   Inner-Iter.     Column Row Layer    Maximum-Head-Change  Column Row Layer    Maximum-Flux-Residual          L2-NORM 
          0                 1           2             4    7     1      -0.3615752774E-01       4    7    1        -0.1894619175E+01      0.4415966476E+01
          0                 2           2             4    7     1       0.3582864544E-02       4    7    1         0.1894607725E+00      0.4413028181E+00
          0                 3           2             4    7     1      -0.3195292827E-03       4    7    1        -0.1705148289E-01      0.3969031174E-01
          0                 4           1             4    7     1       0.2536205424E-04       4    7    1         0.1365824033E-02      0.3176911977E-02

    ------------------------------------------------
       NWT REQUIRED            4 OUTER ITERATIONS 
       AND A TOTAL OF          7 INNER ITERATIONS.
    ------------------------------------------------

 NO OUTPUT CONTROL FOR STRESS PERIOD   21   TIME STEP   18
 
 SOLVING FOR HEAD 
                                                   Max.-Head-Change                         Max.-Flux-Residual
  Residual-Control   Outer-Iter.   Inner-Iter.     Column Row Layer    Maximum-Head-Change  Column Row Layer    Maximum-Flux-Residual          L2-NORM 
          0                 1           2             4    7     1      -0.3235833706E-01       4    7    1        -0.1696472056E+01      0.3932666715E+01
          0                 2           2             4    7     1       0.3206401505E-02       4    7    1         0.1696461988E+00      0.3929773669E+00
          0                 3           2             4    7     1      -0.2859553156E-03       4    7    1        -0.1526816969E-01      0.3534124245E-01
          0                 4           1             4    7     1       0.2269718167E-04       4    7    1         0.1222980628E-02      0.2828662311E-02

    ------------------------------------------------
       NWT REQUIRED            4 OUTER ITERATIONS 
       AND A TOTAL OF          7 INNER ITERATIONS.
    ------------------------------------------------

 NO OUTPUT CONTROL FOR STRESS PERIOD   21   TIME STEP   19
 
 SOLVING FOR HEAD 
                                                   Max.-Head-Change                         Max.-Flux-Residual
  Residual-Control   Outer-Iter.   Inner-Iter.     Column Row Layer    Maximum-Head-Change  Column Row Layer    Maximum-Flux-Residual          L2-NORM 
          0                 1           2             4    7     1      -0.2851452524E-01       4    7    1        -0.1495869174E+01      0.3459201919E+01
          0                 2           2             4    7     1       0.2825517034E-02       4    7    1         0.1495860579E+00      0.3456314005E+00
          0                 3           2             4    7     1      -0.2519870317E-03       4    7    1        -0.1346275531E-01      0.3108005269E-01
          0                 4           1             4    7     1       0.2000101084E-04       4    7    1         0.1078366899E-02      0.2487303326E-02

    ------------------------------------------------
       NWT REQUIRED            4 OUTER ITERATIONS 
       AND A TOTAL OF          7 INNER ITERATIONS.
    ------------------------------------------------

 NO OUTPUT CONTROL FOR STRESS PERIOD   21   TIME STEP   20
 
 SOLVING FOR HEAD 
                                                   Max.-Head-Change                         Max.-Flux-Residual
  Residual-Control   Outer-Iter.   Inner-Iter.     Column Row Layer    Maximum-Head-Change  Column Row Layer    Maximum-Flux-Residual          L2-NORM 
          0                 1           2             4    7     1      -0.2480635438E-01       4    7    1        -0.1302237398E+01      0.2994881418E+01
          0                 2           2             4    7     1       0.2458073279E-02       4    7    1         0.1302230246E+00      0.2993211488E+00
          0                 3           2             4    7     1      -0.2192174270E-03       4    7    1        -0.1172008068E-01      0.2692350182E-01
          0                 4           1             4    7     1       0.1739998343E-04       4    7    1         0.9387786436E-03      0.2155277603E-02

    ------------------------------------------------
       NWT REQUIRED            4 OUTER ITERATIONS 
       AND A TOTAL OF          7 INNER ITERATIONS.
    ------------------------------------------------

 NO OUTPUT CONTROL FOR STRESS PERIOD   21   TIME STEP   21
 
 SOLVING FOR HEAD 
                                                   Max.-Head-Change                         Max.-Flux-Residual
  Residual-Control   Outer-Iter.   Inner-Iter.     Column Row Layer    Maximum-Head-Change  Column Row Layer    Maximum-Flux-Residual          L2-NORM 
          0                 1           2             4    7     1      -0.2139663987E-01       4    7    1        -0.1124096320E+01      0.2575165504E+01
          0                 2           2             4    7     1       0.2120203619E-02       4    7    1         0.1124090482E+00      0.2575055175E+00
          0                 3           2             4    7     1      -0.1890853187E-03       4    7    1        -0.1011682133E-01      0.2317446413E-01
          0                 4           1             4    7     1       0.1500830265E-04       4    7    1         0.8103575476E-03      0.1856169935E-02

    ------------------------------------------------
       NWT REQUIRED            4 OUTER ITERATIONS 
       AND A TOTAL OF          7 INNER ITERATIONS.
    ------------------------------------------------

 NO OUTPUT CONTROL FOR STRESS PERIOD   21   TIME STEP   22
 
 SOLVING FOR HEAD 
                                                   Max.-Head-Change                         Max.-Flux-Residual
  Residual-Control   Outer-Iter.   Inner-Iter.     Column Row Layer    Maximum-Head-Change  Column Row Layer    Maximum-Flux-Residual          L2-NORM 
          0                 1           2             4    7     1      -0.1840174043E-01       4    7    1        -0.9675399139E+00      0.2248851819E+01
          0                 2           2             4    7     1       0.1823438061E-02       4    7    1         0.9675352054E-01      0.2248724340E+00
          0                 3           2             4    7     1      -0.1626189831E-03       4    7    1        -0.8707822554E-02      0.2023740469E-01
          0                 4           1             4    7     1       0.1290758559E-04       4    7    1         0.6974967366E-03      0.1620946525E-02

    ------------------------------------------------
       NWT REQUIRED            4 OUTER ITERATIONS 
       AND A TOTAL OF          7 INNER ITERATIONS.
    ------------------------------------------------

 NO OUTPUT CONTROL FOR STRESS PERIOD   21   TIME STEP   23
 
 SOLVING FOR HEAD 
                                                   Max.-Head-Change                         Max.-Flux-Residual
  Residual-Control   Outer-Iter.   Inner-Iter.     Column Row Layer    Maximum-Head-Change  Column Row Layer    Maximum-Flux-Residual          L2-NORM 
          0                 1           2             4    7     1      -0.1582963174E-01       4    7    1        -0.8330026526E+00      0.1985305719E+01
          0                 2           2             4    7     1       0.1568566922E-02       4    7    1         0.8329988841E-01      0.1985161740E+00
          0                 3           2             4    7     1      -0.1398889027E-03       4    7    1        -0.7496994595E-02      0.1786523098E-01
          0                 4           1             4    7     1       0.1110342681E-04       4    7    1         0.6005093871E-03      0.1430950445E-02

    ------------------------------------------------
       NWT REQUIRED            4 OUTER ITERATIONS 
       AND A TOTAL OF          7 INNER ITERATIONS.
    ------------------------------------------------

 NO OUTPUT CONTROL FOR STRESS PERIOD   21   TIME STEP   24
 
 SOLVING FOR HEAD 
                                                   Max.-Head-Change                         Max.-Flux-Residual
  Residual-Control   Outer-Iter.   Inner-Iter.     Column Row Layer    Maximum-Head-Change  Column Row Layer    Maximum-Flux-Residual          L2-NORM 
          0                 1           2             4    7     1      -0.1356387144E-01       4    7    1        -0.7144152895E+00      0.1769486958E+01
          0                 2           2             4    7     1       0.1344051894E-02       4    7    1         0.7144123162E-01      0.1769322716E+00
          0                 3           1             4    7     1      -0.1198660609E-03       4    7    1        -0.6429714568E-02      0.1592237222E-01
          0                 4           1             4    7     1       0.9514150307E-05       4    7    1         0.5150202467E-03      0.1275182443E-02

    ------------------------------------------------
       NWT REQUIRED            4 OUTER ITERATIONS 
       AND A TOTAL OF          6 INNER ITERATIONS.
    ------------------------------------------------

 NO OUTPUT CONTROL FOR STRESS PERIOD   21   TIME STEP   25
 
 SOLVING FOR HEAD 
                                                   Max.-Head-Change                         Max.-Flux-Residual
  Residual-Control   Outer-Iter.   Inner-Iter.     Column Row Layer    Maximum-Head-Change  Column Row Layer    Maximum-Flux-Residual          L2-NORM 
          0                 1           2             4    7     1      -0.1160406826E-01       4    7    1        -0.6117694727E+00      0.1598328457E+01
          0                 2           2             4    7     1       0.1149854218E-02       4    7    1         0.6117671555E-01      0.1598145877E+00
          0                 3           1             4    7     1      -0.1025470011E-03       4    7    1        -0.5505907371E-02      0.1438157116E-01
          0                 4           1             4    7     1       0.8139481337E-05       4    7    1         0.4410232643E-03      0.1151796345E-02

    ------------------------------------------------
       NWT REQUIRED            4 OUTER ITERATIONS 
       AND A TOTAL OF          6 INNER ITERATIONS.
    ------------------------------------------------

 NO OUTPUT CONTROL FOR STRESS PERIOD   21   TIME STEP   26
 
 SOLVING FOR HEAD 
                                                   Max.-Head-Change                         Max.-Flux-Residual
  Residual-Control   Outer-Iter.   Inner-Iter.     Column Row Layer    Maximum-Head-Change  Column Row Layer    Maximum-Flux-Residual          L2-NORM 
          0                 1           2             4    7     1      -0.9881636320E-02       4    7    1        -0.5214931766E+00      0.1462184091E+01
          0                 2           2             4    7     1       0.9791777009E-03       4    7    1         0.5214914049E-01      0.1461984876E+00
          0                 3           1             4    7     1      -0.8732562017E-04       4    7    1        -0.4693424956E-02      0.1315606706E-01

    ------------------------------------------------
       NWT REQUIRED            3 OUTER ITERATIONS 
       AND A TOTAL OF          5 INNER ITERATIONS.
    ------------------------------------------------

 NO OUTPUT CONTROL FOR STRESS PERIOD   21   TIME STEP   27
 
 SOLVING FOR HEAD 
                                                   Max.-Head-Change                         Max.-Flux-Residual
  Residual-Control   Outer-Iter.   Inner-Iter.     Column Row Layer    Maximum-Head-Change  Column Row Layer    Maximum-Flux-Residual          L2-NORM 
          0                 1           2             4    7     1      -0.8371111648E-02       4    7    1        -0.4422624899E+00      0.1462440778E+01
          0                 2           2             4    7     1       0.8294991194E-03       4    7    1         0.4422611676E-01      0.1456834535E+00
          0                 3           1             4    7     1      -0.7397689139E-04       4    7    1        -0.3980352304E-02      0.1305919785E-01

    ------------------------------------------------
       NWT REQUIRED            3 OUTER ITERATIONS 
       AND A TOTAL OF          5 INNER ITERATIONS.
    ------------------------------------------------

 NO OUTPUT CONTROL FOR STRESS PERIOD   21   TIME STEP   28
 
 SOLVING FOR HEAD 
                                                   Max.-Head-Change                         Max.-Flux-Residual
  Residual-Control   Outer-Iter.   Inner-Iter.     Column Row Layer    Maximum-Head-Change  Column Row Layer    Maximum-Flux-Residual          L2-NORM 
          0                 1           2             6    7     1      -0.7179680930E-02       6    7    1        -0.3802883927E+00      0.1376183911E+01
          0                 2           2             6    7     1       0.7114395871E-03       6    7    1         0.3802873725E-01      0.1370960161E+00
          0                 3           1             6    7     1      -0.6344803327E-04       6    7    1        -0.3422587775E-02      0.1229000466E-01

    ------------------------------------------------
       NWT REQUIRED            3 OUTER ITERATIONS 
       AND A TOTAL OF          5 INNER ITERATIONS.
    ------------------------------------------------

 NO OUTPUT CONTROL FOR STRESS PERIOD   21   TIME STEP   29
 
 SOLVING FOR HEAD 
                                                   Max.-Head-Change                         Max.-Flux-Residual
  Residual-Control   Outer-Iter.   Inner-Iter.     Column Row Layer    Maximum-Head-Change  Column Row Layer    Maximum-Flux-Residual          L2-NORM 
          0                 1           2             6    7     1      -0.7212492804E-02       6    7    1        -0.3828122220E+00      0.1326072801E+01
          0                 2           2             6    7     1       0.7146907085E-03       6    7    1         0.3828110409E-01      0.1321320072E+00
          0                 3           1             6    7     1      -0.6373797934E-04       6    7    1        -0.3445300965E-02      0.1184788290E-01

    ------------------------------------------------
       NWT REQUIRED            3 OUTER ITERATIONS 
       AND A TOTAL OF          5 INNER ITERATIONS.
    ------------------------------------------------

 NO OUTPUT CONTROL FOR STRESS PERIOD   21   TIME STEP   30



 STREAM LISTING     PERIOD     21   STEP       30

 LAYER ROW COL. STREAM  RCH.  FLOW INTO     FLOW TO   FLOW OUT OF   OVRLND.     DIRECT     STREAM       STREAM     STREAM     STREAM   STREAMBED  STREAMBED
                SEG.NO.  NO.  STRM. RCH.    AQUIFER    STRM. RCH.    RUNOFF     PRECIP       ET          HEAD       DEPTH      WIDTH   CONDCTNC.   GRADIENT

   1    1    1     1     1    1.0292E+01  1.5099E-01   1.0141E+01  0.000E+00  0.000E+00  0.000E+00  1.09395E+03  9.056E-01  8.591E+00  3.866E-02  1.302E+00
   1    2    2     1     2    1.0141E+01  2.3238E-01   9.9089E+00  0.000E+00  0.000E+00  0.000E+00  1.08896E+03  9.007E-01  8.511E+00  5.957E-02  1.300E+00
   1    3    3     1     3    9.9089E+00  1.9655E-01   9.7123E+00  0.000E+00  0.000E+00  0.000E+00  1.08331E+03  8.943E-01  8.412E+00  5.047E-02  1.298E+00
   1    3    4     1     4    9.7123E+00  1.7964E-01   9.5327E+00  0.000E+00  0.000E+00  0.000E+00  1.07830E+03  8.886E-01  8.324E+00  4.620E-02  1.296E+00
   1    4    5     2     1    7.5327E+00  2.7935E-01   7.2533E+00  0.000E+00  0.000E+00  0.000E+00  1.07252E+03  5.813E-01  1.200E+01  7.800E-02  1.194E+00
   1    5    6     2     2    7.2533E+00  2.1418E-01   7.0391E+00  0.000E+00  0.000E+00  0.000E+00  1.06708E+03  5.696E-01  1.200E+01  6.000E-02  1.190E+00
   1    6    6     2     3    7.0391E+00  2.1356E-01   6.8256E+00  0.000E+00  0.000E+00  0.000E+00  1.06235E+03  5.593E-01  1.200E+01  6.000E-02  1.186E+00
   1    7    6     2     4    6.8256E+00  2.1294E-01   6.6127E+00  0.000E+00  0.000E+00  0.000E+00  1.05762E+03  5.489E-01  1.200E+01  6.000E-02  1.183E+00
   1    8    6     2     5    6.6127E+00  2.1231E-01   6.4003E+00  0.000E+00  0.000E+00  0.000E+00  1.05290E+03  5.385E-01  1.200E+01  6.000E-02  1.179E+00
   1    3    5     3     1    2.0000E+00  2.8252E-01   1.7175E+00  0.000E+00  0.000E+00  0.000E+00  1.07555E+03  1.909E+00  9.636E+00  7.227E-02  1.955E+00
   1    3    6     3     2    1.7175E+00  2.4905E-01   1.4684E+00  0.000E+00  0.000E+00  0.000E+00  1.07264E+03  1.727E+00  8.909E+00  6.682E-02  1.864E+00
   1    3    7     3     3    1.4684E+00  1.9718E-01   1.2712E+00  0.000E+00  0.000E+00  0.000E+00  1.06987E+03  1.555E+00  8.218E+00  5.547E-02  1.777E+00
   1    4    8     3     4    1.2712E+00  2.2567E-01   1.0456E+00  0.000E+00  0.000E+00  0.000E+00  1.06682E+03  1.364E+00  7.455E+00  6.709E-02  1.682E+00
   1    5    8     3     5    1.0456E+00  1.5790E-01   8.8768E-01  0.000E+00  0.000E+00  0.000E+00  1.06362E+03  1.164E+00  6.655E+00  4.991E-02  1.582E+00
   1    6    8     3     6    8.8768E-01  5.5980E-02   8.3170E-01  0.000E+00  0.000E+00  0.000E+00  1.06158E+03  1.036E+00  6.145E+00  1.844E-02  1.518E+00
   1    5   10     4     1    1.0000E+01  9.0919E-02   9.9091E+00  0.000E+00  0.000E+00  0.000E+00  1.07836E+03  6.368E-01  1.000E+01  2.500E-02  1.212E+00
   1    5    9     4     2    9.9091E+00  1.8158E-01   9.7275E+00  0.000E+00  0.000E+00  0.000E+00  1.07154E+03  6.315E-01  1.000E+01  5.000E-02  1.211E+00
   1    6    8     4     3    9.7275E+00  1.2689E-01   9.6006E+00  0.000E+00  0.000E+00  0.000E+00  1.06381E+03  6.256E-01  1.000E+01  3.500E-02  1.209E+00
   1    6    8     5     1    1.0432E+01  2.2686E-01   1.0205E+01  0.000E+00  0.000E+00  0.000E+00  1.05868E+03  6.790E-01  1.542E+01  6.166E-02  1.226E+00
   1    7    7     5     2    1.0205E+01  2.7894E-01   9.9265E+00  0.000E+00  0.000E+00  0.000E+00  1.05417E+03  6.732E-01  1.519E+01  7.594E-02  1.224E+00
   1    8    7     5     3    9.9265E+00  1.9221E-01   9.7343E+00  0.000E+00  0.000E+00  0.000E+00  1.04992E+03  6.676E-01  1.497E+01  5.241E-02  1.223E+00
   1    8    6     5     4    9.7343E+00  1.3577E-01   9.5985E+00  0.000E+00  0.000E+00  0.000E+00  1.04691E+03  6.637E-01  1.482E+01  3.706E-02  1.221E+00
   1    9    6     6     1    9.5985E+00  2.2097E-01   9.3776E+00  0.000E+00  0.000E+00  0.000E+00  1.04341E+03  6.828E-01  1.200E+01  6.000E-02  1.228E+00
   1   10    7     6     2    9.3776E+00  2.2039E-01   9.1572E+00  0.000E+00  0.000E+00  0.000E+00  1.03885E+03  6.732E-01  1.200E+01  6.000E-02  1.224E+00
   1   11    7     6     3    9.1572E+00  2.1981E-01   8.9374E+00  0.000E+00  0.000E+00  0.000E+00  1.03430E+03  6.636E-01  1.200E+01  6.000E-02  1.221E+00
   1   12    7     6     4    8.9374E+00  2.1923E-01   8.7181E+00  0.000E+00  0.000E+00  0.000E+00  1.02974E+03  6.539E-01  1.200E+01  6.000E-02  1.218E+00
   1   13    7     6     5    8.7181E+00 -9.0391E-02   8.8085E+00  0.000E+00  0.000E+00  0.000E+00  1.02656E+03  6.510E-01  1.200E+01  2.400E-01 -1.255E-01
   1   14    9     7     1    1.5000E+02  1.3413E+00   1.4866E+02  0.000E+00  0.000E+00  0.000E+00  1.03987E+03  2.288E+00  5.529E+01  5.593E-01  7.994E-01
   1   13    8     7     2    1.4866E+02  1.8502E+00   1.4681E+02  0.000E+00  0.000E+00  0.000E+00  1.03478E+03  2.279E+00  5.526E+01  6.148E-01  1.003E+00
   1   13    7     7     3    1.4681E+02  1.5373E+00   1.4527E+02  0.000E+00  0.000E+00  0.000E+00  1.02969E+03  2.270E+00  5.522E+01  5.584E-01  9.176E-01
   1   13    6     8     1    1.5408E+02  9.5651E-01   1.5312E+02  0.000E+00  0.000E+00  0.000E+00  1.02472E+03  2.842E+00  4.121E+01  4.199E-01  7.592E-01
   1   13    5     8     2    1.5312E+02  3.5897E-01   1.5276E+02  0.000E+00  0.000E+00  0.000E+00  1.01846E+03  2.837E+00  4.114E+01  4.193E-01  2.854E-01
   1   13    4     8     3    1.5276E+02 -1.1860E+00   1.5395E+02  0.000E+00  0.000E+00  0.000E+00  1.01222E+03  2.840E+00  4.118E+01  4.197E+00 -9.420E-02
   1   13    3     8     4    1.5395E+02 -2.4079E+00   1.5636E+02  0.000E+00  0.000E+00  0.000E+00  1.00598E+03  2.853E+00  4.136E+01  4.215E+00 -1.904E-01
   1   13    2     8     5    1.5636E+02 -1.8945E+00   1.5825E+02  0.000E+00  0.000E+00  0.000E+00  9.99743E+02  2.868E+00  4.158E+01  4.237E+00 -1.490E-01
   1   13    1     8     6    1.5825E+02 -8.4052E-01   1.5909E+02  0.000E+00  0.000E+00  0.000E+00  9.94752E+02  2.877E+00  4.171E+01  2.550E+00 -1.098E-01
   1    6    8     9     1    6.4003E+00  0.0000E+00   6.4003E+00  0.000E+00  0.000E+00  0.000E+00  1.07891E+03  4.123E-01  4.000E+00  0.000E+00  1.137E+00





UNSATURATED ZONE PACKAGE VOLUMETRIC BUDGET FOR  TIME STEP    30 STRESS PERIOD   21
  ------------------------------------------------------------------------------



     CUMULATIVE VOLUMES      L**3       RATES FOR THIS TIME STEP      L**3/T
     ------------------                 ------------------------

           IN:                                      IN:
           ---                                      ---
        INFILTRATION =   127573932.4790          INFILTRATION =           6.2477

          OUT:                                     OUT:
          ----                                     ----
              UZF ET =    92666827.3138                UZF ET =           8.5570
        UZF RECHARGE =       73224.0000          UZF RECHARGE =       0.0000E+00

            IN - OUT =    34833881.1652              IN - OUT =          -2.3093

          STORAGE:                                 STORAGE:
          --------                                 --------
      STORAGE CHANGE =    34832502.8029        STORAGE CHANGE =          -2.3093

 PERCENT DISCREPANCY IS DIFFERENCE BETWEEN IN-OUT MINUS CHANGE IN STORAGE
 DIVIDED BY THE AVERAGE OF IN AND OUT TIMES 100

 PERCENT DISCREPANCY =           0.00     PERCENT DISCREPANCY =           0.00






1
  VOLUMETRIC BUDGET FOR ENTIRE MODEL AT END OF TIME STEP   30, STRESS PERIOD  21
  ------------------------------------------------------------------------------

     CUMULATIVE VOLUMES      L**3       RATES FOR THIS TIME STEP      L**3/T
     ------------------                 ------------------------

           IN:                                      IN:
           ---                                      ---
    AWU WELLS            =   127500664.0000      AWU WELLS            =           6.2477
    DIVERSION SEGMENTS   =           0.0000      DIVERSION SEGMENTS   =           0.0000
    GW IRRIGATION        =           0.0000      GW IRRIGATION        =           0.0000
    SW IRRIGATION        =           0.0000      SW IRRIGATION        =           0.0000
    EFFICIENCY FACTOR GW =           0.0000      EFFICIENCY FACTOR GW =           0.0000
    EFFICIENCY FACTOR SW =           0.0000      EFFICIENCY FACTOR SW =           0.0000

                TOTAL IN =   127500664.0000                  TOTAL IN =           6.2477

          OUT:                                     OUT:
          ----                                     ----
    AWU WELLS            =           0.0000      AWU WELLS            =           0.0000
    DIVERSION SEGMENTS   =           0.0000      DIVERSION SEGMENTS   =           0.0000
    GW IRRIGATION        =   127500664.0000      GW IRRIGATION        =           6.2477
    SW IRRIGATION        =           0.0000      SW IRRIGATION        =           0.0000
    EFFICIENCY FACTOR GW =           0.0000      EFFICIENCY FACTOR GW =           0.0000
    EFFICIENCY FACTOR SW =           0.0000      EFFICIENCY FACTOR SW =           0.0000

               TOTAL OUT =   127500664.0000                 TOTAL OUT =           6.2477

                IN - OUT =           0.0000                  IN - OUT =           0.0000

     PERCENT DISCREPANCY =           0.00         PERCENT DISCREPANCY =           0.00



1
  VOLUMETRIC BUDGET FOR ENTIRE MODEL AT END OF TIME STEP   30, STRESS PERIOD  21
  ------------------------------------------------------------------------------

     CUMULATIVE VOLUMES      L**3       RATES FOR THIS TIME STEP      L**3/T
     ------------------                 ------------------------

           IN:                                      IN:
           ---                                      ---
             STORAGE     =   210541248.0000               STORAGE     =           9.1508
       CONSTANT HEAD     =           0.0000         CONSTANT HEAD     =           0.0000
     HEAD DEP BOUNDS     =    15054980.0000       HEAD DEP BOUNDS     =           0.2861
      STREAM LEAKAGE     =   624638976.0000        STREAM LEAKAGE     =          11.2180
        UZF RECHARGE     =       73223.9531          UZF RECHARGE     =           0.0000
               GW ET     =           0.0000                 GW ET     =           0.0000
     SURFACE LEAKAGE     =           0.0000       SURFACE LEAKAGE     =           0.0000
    AWU WELLS            =           0.0000      AWU WELLS            =           0.0000

                TOTAL IN =   850308416.0000                  TOTAL IN =          20.6549

          OUT:                                     OUT:
          ----                                     ----
             STORAGE     =   101566224.0000               STORAGE     =           0.1473
       CONSTANT HEAD     =           0.0000         CONSTANT HEAD     =           0.0000
     HEAD DEP BOUNDS     =    15081958.0000       HEAD DEP BOUNDS     =           0.2691
      STREAM LEAKAGE     =   504253472.0000        STREAM LEAKAGE     =           6.4193
        UZF RECHARGE     =           0.0000          UZF RECHARGE     =           0.0000
               GW ET     =   101892640.0000                 GW ET     =           7.5651
     SURFACE LEAKAGE     =           0.0000       SURFACE LEAKAGE     =           0.0000
    AWU WELLS            =   127500664.0000      AWU WELLS            =           6.2477

               TOTAL OUT =   850294912.0000                 TOTAL OUT =          20.6484

                IN - OUT =       13504.0000                  IN - OUT =       6.4945E-03

     PERCENT DISCREPANCY =           0.00         PERCENT DISCREPANCY =           0.03






         TIME SUMMARY AT END OF TIME STEP   30 IN STRESS PERIOD   21
                    SECONDS     MINUTES      HOURS       DAYS        YEARS
                    -----------------------------------------------------------
   TIME STEP LENGTH  87600.      1460.0      24.333      1.0139     2.77588E-03
 STRESS PERIOD TIME 2.62800E+06  43800.      730.00      30.417     8.32763E-02
         TOTAL TIME 5.26464E+07 8.77440E+05  14624.      609.33      1.6683    
1
1
                            STRESS PERIOD NO.   22, LENGTH =   2628000.    
                            -----------------------------------------------

                              NUMBER OF TIME STEPS =    30

                               MULTIPLIER FOR DELT =     1.000

                            INITIAL TIME STEP SIZE =   87600.00    

 REUSING NON-PARAMETER GHB CELLS FROM LAST STRESS PERIOD

      2 GHB CELLS

 REUSING STREAM SEGMENT DATA FROM LAST STRESS PERIOD



            AREAL INFILTRATION RATE
 READING ON UNIT   19 WITH FORMAT: (10F4.0)            

            1           2           3           4           5           6           7           8           9          10
 ........................................................................................................................
   1    0.000       0.000       0.000       0.000       0.000       0.000       0.000       0.000       0.000       0.000    
   2    0.000       0.000       0.000       0.000       0.000       0.000       0.000       0.000       0.000       0.000    
   3    0.000       0.000       0.000       0.000       0.000       0.000       0.000       0.000       0.000       0.000    
   4    0.000       0.000       0.000       0.000       0.000       0.000       0.000       0.000       0.000       0.000    
   5    0.000       0.000       0.000       0.000       0.000       0.000       0.000       0.000       0.000       0.000    
   6    0.000       0.000       0.000       0.000       0.000       0.000       0.000       0.000       0.000       0.000    
   7    0.000       0.000       0.000       0.000       0.000       0.000       0.000       0.000       0.000       0.000    
   8    0.000       0.000       0.000       0.000       0.000       0.000       0.000       0.000       0.000       0.000    
   9    0.000       0.000       0.000       0.000       0.000       0.000       0.000       0.000       0.000       0.000    
  10    0.000       0.000       0.000       0.000       0.000       0.000       0.000       0.000       0.000       0.000    
  11    0.000       0.000       0.000       0.000       0.000       0.000       0.000       0.000       0.000       0.000    
  12    0.000       0.000       0.000       0.000       0.000       0.000       0.000       0.000       0.000       0.000    
  13    0.000       0.000       0.000       0.000       0.000       0.000       0.000       0.000       0.000       0.000    
  14    0.000       0.000       0.000       0.000       0.000       0.000       0.000       0.000       0.000       0.000    
  15    0.000       0.000       0.000       0.000       0.000       0.000       0.000       0.000       0.000       0.000    

                  ET RATE =  2.500000E-08

 USING ET EXTINCTION DEPTH FROM PREVIOUS STRESS PERIOD. CURRENT PERIOD IS:      22

 USING EXTINCTION WATER CONTENT FROM PREVIOUS STRESS PERIOD. CURRENT PERIOD IS:      22

 PROCESSING AWU STRESS PERIOD DATA

 READING AWU STRESS PERIOD DATA

 READING IRRIGATION WELL

 END PROCESSING AWU STRESS PERIOD DATA OPTIONS
 
 SOLVING FOR HEAD 
                                                   Max.-Head-Change                         Max.-Flux-Residual
  Residual-Control   Outer-Iter.   Inner-Iter.     Column Row Layer    Maximum-Head-Change  Column Row Layer    Maximum-Flux-Residual          L2-NORM 
          0                 1           2             3   13     1       0.1820121795E-01       3   13    1         0.1036939637E+01      0.3028735444E+01
          0                 2           2             5    6     1      -0.1762016359E-02       3   13    1        -0.1010765212E+00      0.3004265390E+00
          0                 3           2             5    6     1       0.1571412129E-03       3   13    1         0.8841576741E-02      0.2680978778E-01
          0                 4           1             5    6     1      -0.1247279763E-04       5    6    1        -0.6947784846E-03      0.2128195202E-02

    ------------------------------------------------
       NWT REQUIRED            4 OUTER ITERATIONS 
       AND A TOTAL OF          7 INNER ITERATIONS.
    ------------------------------------------------

 NO OUTPUT CONTROL FOR STRESS PERIOD   22   TIME STEP    1
 
 SOLVING FOR HEAD 
                                                   Max.-Head-Change                         Max.-Flux-Residual
  Residual-Control   Outer-Iter.   Inner-Iter.     Column Row Layer    Maximum-Head-Change  Column Row Layer    Maximum-Flux-Residual          L2-NORM 
          0                 1           2             5    6     1       0.1707761245E-01       3   13    1         0.9478521945E+00      0.2894069493E+01
          0                 2           2             5    6     1      -0.1692231806E-02       5    6    1        -0.9248753841E-01      0.2872135150E+00
          0                 3           2             5    6     1       0.1509176429E-03       5    6    1         0.8323882398E-02      0.2564420520E-01
          0                 4           1             5    6     1      -0.1197881337E-04       5    6    1        -0.6667431426E-03      0.2036700264E-02

    ------------------------------------------------
       NWT REQUIRED            4 OUTER ITERATIONS 
       AND A TOTAL OF          7 INNER ITERATIONS.
    ------------------------------------------------

 NO OUTPUT CONTROL FOR STRESS PERIOD   22   TIME STEP    2
 
 SOLVING FOR HEAD 
                                                   Max.-Head-Change                         Max.-Flux-Residual
  Residual-Control   Outer-Iter.   Inner-Iter.     Column Row Layer    Maximum-Head-Change  Column Row Layer    Maximum-Flux-Residual          L2-NORM 
          0                 1           2             5    6     1       0.1641391428E-01       5    6    1         0.8882523157E+00      0.2770026949E+01
          0                 2           2             5    6     1      -0.1626465674E-02       5    6    1        -0.8882495651E-01      0.2750374354E+00
          0                 3           2             5    6     1       0.1450524462E-03       5    6    1         0.7994249785E-02      0.2456982887E-01
          0                 4           1             5    6     1      -0.1151327375E-04       5    6    1        -0.6403395473E-03      0.1952656859E-02

    ------------------------------------------------
       NWT REQUIRED            4 OUTER ITERATIONS 
       AND A TOTAL OF          7 INNER ITERATIONS.
    ------------------------------------------------

 NO OUTPUT CONTROL FOR STRESS PERIOD   22   TIME STEP    3
 
 SOLVING FOR HEAD 
                                                   Max.-Head-Change                         Max.-Flux-Residual
  Residual-Control   Outer-Iter.   Inner-Iter.     Column Row Layer    Maximum-Head-Change  Column Row Layer    Maximum-Flux-Residual          L2-NORM 
          0                 1           2             5    6     1       0.1578822178E-01       5    6    1         0.8537471298E+00      0.2655571529E+01
          0                 2           2             5    6     1      -0.1564465534E-02       5    6    1        -0.8537445821E-01      0.2637976375E+00
          0                 3           2             5    6     1       0.1395231107E-03       5    6    1         0.7683704699E-02      0.2357685381E-01
          0                 4           1             5    6     1      -0.1107439276E-04       5    6    1        -0.6154648779E-03      0.1874618129E-02

    ------------------------------------------------
       NWT REQUIRED            4 OUTER ITERATIONS 
       AND A TOTAL OF          7 INNER ITERATIONS.
    ------------------------------------------------

 NO OUTPUT CONTROL FOR STRESS PERIOD   22   TIME STEP    4
 
 SOLVING FOR HEAD 
                                                   Max.-Head-Change                         Max.-Flux-Residual
  Residual-Control   Outer-Iter.   Inner-Iter.     Column Row Layer    Maximum-Head-Change  Column Row Layer    Maximum-Flux-Residual          L2-NORM 
          0                 1           2             5    6     1       0.1519730686E-01       5    6    1         0.8211808771E+00      0.2601941973E+01
          0                 2           2             5    6     1      -0.1505911510E-02       5    6    1        -0.8211785155E-01      0.2583272550E+00
          0                 3           2             5    6     1       0.1343011090E-03       5    6    1         0.7390609866E-02      0.2307491608E-01
          0                 4           1             5    6     1      -0.1065990596E-04       5    6    1        -0.5919879923E-03      0.1833758064E-02

    ------------------------------------------------
       NWT REQUIRED            4 OUTER ITERATIONS 
       AND A TOTAL OF          7 INNER ITERATIONS.
    ------------------------------------------------

 NO OUTPUT CONTROL FOR STRESS PERIOD   22   TIME STEP    5
 
 SOLVING FOR HEAD 
                                                   Max.-Head-Change                         Max.-Flux-Residual
  Residual-Control   Outer-Iter.   Inner-Iter.     Column Row Layer    Maximum-Head-Change  Column Row Layer    Maximum-Flux-Residual          L2-NORM 
          0                 1           2             5    6     1       0.1463935820E-01       5    6    1         0.7904523645E+00      0.2513310494E+01
          0                 2           2             5    6     1      -0.1450624122E-02       5    6    1        -0.7904501742E-01      0.2495779826E+00
          0                 3           2             5    6     1       0.1293704343E-03       5    6    1         0.7114054609E-02      0.2229798130E-01
          0                 4           1             5    6     1      -0.1026854228E-04       5    6    1        -0.5698358757E-03      0.1772065549E-02

    ------------------------------------------------
       NWT REQUIRED            4 OUTER ITERATIONS 
       AND A TOTAL OF          7 INNER ITERATIONS.
    ------------------------------------------------

 NO OUTPUT CONTROL FOR STRESS PERIOD   22   TIME STEP    6
 
 SOLVING FOR HEAD 
                                                   Max.-Head-Change                         Max.-Flux-Residual
  Residual-Control   Outer-Iter.   Inner-Iter.     Column Row Layer    Maximum-Head-Change  Column Row Layer    Maximum-Flux-Residual          L2-NORM 
          0                 1           2             5    7     1       0.1426164295E-01       5    6    1         0.7614344491E+00      0.2415921048E+01
          0                 2           2             5    7     1      -0.1413197823E-02       5    6    1        -0.7614324165E-01      0.2400241116E+00
          0                 3           2             5    7     1       0.1260326420E-03       5    6    1         0.6852894611E-02      0.2145479575E-01
          0                 4           1             5    7     1      -0.1000361152E-04       5    6    1        -0.5489169639E-03      0.1706126352E-02

    ------------------------------------------------
       NWT REQUIRED            4 OUTER ITERATIONS 
       AND A TOTAL OF          7 INNER ITERATIONS.
    ------------------------------------------------

 NO OUTPUT CONTROL FOR STRESS PERIOD   22   TIME STEP    7
 
 SOLVING FOR HEAD 
                                                   Max.-Head-Change                         Max.-Flux-Residual
  Residual-Control   Outer-Iter.   Inner-Iter.     Column Row Layer    Maximum-Head-Change  Column Row Layer    Maximum-Flux-Residual          L2-NORM 
          0                 1           2             5    7     1       0.1397151735E-01       5    7    1         0.7417809016E+00      0.2325686542E+01
          0                 2           2             5    7     1      -0.1384449308E-02       5    7    1        -0.7417801249E-01      0.2311664765E+00
          0                 3           2             5    7     1       0.1234687730E-03       5    7    1         0.6676022722E-02      0.2067389583E-01
          0                 4           1             5    7     1      -0.9800109378E-05       5    7    1        -0.5347495626E-03      0.1645328094E-02

    ------------------------------------------------
       NWT REQUIRED            4 OUTER ITERATIONS 
       AND A TOTAL OF          7 INNER ITERATIONS.
    ------------------------------------------------

 NO OUTPUT CONTROL FOR STRESS PERIOD   22   TIME STEP    8
 
 SOLVING FOR HEAD 
                                                   Max.-Head-Change                         Max.-Flux-Residual
  Residual-Control   Outer-Iter.   Inner-Iter.     Column Row Layer    Maximum-Head-Change  Column Row Layer    Maximum-Flux-Residual          L2-NORM 
          0                 1           2             4    7     1       0.1371875687E-01       5    7    1         0.7266934205E+00      0.2241931628E+01
          0                 2           2             4    7     1      -0.1359404248E-02       5    7    1        -0.7266928235E-01      0.2229399382E+00
          0                 3           2             4    7     1       0.1212351775E-03       5    7    1         0.6540236783E-02      0.1994738843E-01
          0                 4           1             4    7     1      -0.9622821500E-05       5    7    1        -0.5238731171E-03      0.1587978981E-02

    ------------------------------------------------
       NWT REQUIRED            4 OUTER ITERATIONS 
       AND A TOTAL OF          7 INNER ITERATIONS.
    ------------------------------------------------

 NO OUTPUT CONTROL FOR STRESS PERIOD   22   TIME STEP    9
 
 SOLVING FOR HEAD 
                                                   Max.-Head-Change                         Max.-Flux-Residual
  Residual-Control   Outer-Iter.   Inner-Iter.     Column Row Layer    Maximum-Head-Change  Column Row Layer    Maximum-Flux-Residual          L2-NORM 
          0                 1           2             4    7     1       0.1362128815E-01       4    7    1         0.7133651972E+00      0.2164049288E+01
          0                 2           2             4    7     1      -0.1349746250E-02       4    7    1        -0.7133654227E-01      0.2152848470E+00
          0                 3           2             4    7     1       0.1203738496E-03       4    7    1         0.6420289375E-02      0.1927033385E-01
          0                 4           1             4    7     1      -0.9554455230E-05       4    7    1        -0.5142653051E-03      0.1534599333E-02

    ------------------------------------------------
       NWT REQUIRED            4 OUTER ITERATIONS 
       AND A TOTAL OF          7 INNER ITERATIONS.
    ------------------------------------------------

 NO OUTPUT CONTROL FOR STRESS PERIOD   22   TIME STEP   10
 
 SOLVING FOR HEAD 
                                                   Max.-Head-Change                         Max.-Flux-Residual
  Residual-Control   Outer-Iter.   Inner-Iter.     Column Row Layer    Maximum-Head-Change  Column Row Layer    Maximum-Flux-Residual          L2-NORM 
          0                 1           2             4    7     1       0.1351667078E-01       4    7    1         0.7082928758E+00      0.2091491158E+01
          0                 2           2             4    7     1      -0.1339379855E-02       4    7    1        -0.7082932611E-01      0.2081490112E+00
          0                 3           2             4    7     1       0.1194493456E-03       4    7    1         0.6374639755E-02      0.1863972360E-01
          0                 4           1             4    7     1      -0.9481074815E-05       4    7    1        -0.5106087908E-03      0.1485155957E-02

    ------------------------------------------------
       NWT REQUIRED            4 OUTER ITERATIONS 
       AND A TOTAL OF          7 INNER ITERATIONS.
    ------------------------------------------------

 NO OUTPUT CONTROL FOR STRESS PERIOD   22   TIME STEP   11
 
 SOLVING FOR HEAD 
                                                   Max.-Head-Change                         Max.-Flux-Residual
  Residual-Control   Outer-Iter.   Inner-Iter.     Column Row Layer    Maximum-Head-Change  Column Row Layer    Maximum-Flux-Residual          L2-NORM 
          0                 1           2             4    7     1       0.1340588466E-01       4    7    1         0.7028644052E+00      0.2023783492E+01
          0                 2           2             4    7     1      -0.1328402169E-02       4    7    1        -0.7028649328E-01      0.2014844592E+00
          0                 3           2             4    7     1       0.1184703253E-03       4    7    1         0.6325784677E-02      0.1804985767E-01
          0                 4           1             4    7     1      -0.9403366525E-05       4    7    1        -0.5066954882E-03      0.1438744911E-02

    ------------------------------------------------
       NWT REQUIRED            4 OUTER ITERATIONS 
       AND A TOTAL OF          7 INNER ITERATIONS.
    ------------------------------------------------

 NO OUTPUT CONTROL FOR STRESS PERIOD   22   TIME STEP   12
 
 SOLVING FOR HEAD 
                                                   Max.-Head-Change                         Max.-Flux-Residual
  Residual-Control   Outer-Iter.   Inner-Iter.     Column Row Layer    Maximum-Head-Change  Column Row Layer    Maximum-Flux-Residual          L2-NORM 
          0                 1           2             4    7     1       0.1328930204E-01       4    7    1         0.6971010506E+00      0.1913934674E+01
          0                 2           2             4    7     1      -0.1316850077E-02       4    7    1        -0.6971017044E-01      0.1908618220E+00
          0                 3           2             4    7     1       0.1174400782E-03       4    7    1         0.6273915488E-02      0.1712778559E-01
          0                 4           1             4    7     1      -0.9321592942E-05       4    7    1        -0.5025407713E-03      0.1367936334E-02

    ------------------------------------------------
       NWT REQUIRED            4 OUTER ITERATIONS 
       AND A TOTAL OF          7 INNER ITERATIONS.
    ------------------------------------------------

 NO OUTPUT CONTROL FOR STRESS PERIOD   22   TIME STEP   13
 
 SOLVING FOR HEAD 
                                                   Max.-Head-Change                         Max.-Flux-Residual
  Residual-Control   Outer-Iter.   Inner-Iter.     Column Row Layer    Maximum-Head-Change  Column Row Layer    Maximum-Flux-Residual          L2-NORM 
          0                 1           2             4    7     1       0.1316754463E-01       4    7    1         0.6910369183E+00      0.1859625975E+01
          0                 2           2             4    7     1      -0.1304785189E-02       4    7    1        -0.6910376834E-01      0.1854870524E+00
          0                 3           2             4    7     1       0.1163640986E-03       4    7    1         0.6219339178E-02      0.1664939635E-01
          0                 4           1             4    7     1      -0.9236188947E-05       4    7    1        -0.4981692098E-03      0.1329843458E-02

    ------------------------------------------------
       NWT REQUIRED            4 OUTER ITERATIONS 
       AND A TOTAL OF          7 INNER ITERATIONS.
    ------------------------------------------------

 NO OUTPUT CONTROL FOR STRESS PERIOD   22   TIME STEP   14
 
 SOLVING FOR HEAD 
                                                   Max.-Head-Change                         Max.-Flux-Residual
  Residual-Control   Outer-Iter.   Inner-Iter.     Column Row Layer    Maximum-Head-Change  Column Row Layer    Maximum-Flux-Residual          L2-NORM 
          0                 1           2             4    7     1       0.1304118618E-01       4    7    1         0.6847042684E+00      0.1808385433E+01
          0                 2           2             4    7     1      -0.1292264359E-02       4    7    1        -0.6847051312E-01      0.1804126732E+00
          0                 3           1             4    7     1       0.1152474571E-03       4    7    1         0.6162346108E-02      0.1619709332E-01
          0                 4           1             4    7     1      -0.9147557297E-05       4    7    1        -0.4936040555E-03      0.1293901561E-02

    ------------------------------------------------
       NWT REQUIRED            4 OUTER ITERATIONS 
       AND A TOTAL OF          6 INNER ITERATIONS.
    ------------------------------------------------

 NO OUTPUT CONTROL FOR STRESS PERIOD   22   TIME STEP   15
 
 SOLVING FOR HEAD 
                                                   Max.-Head-Change                         Max.-Flux-Residual
  Residual-Control   Outer-Iter.   Inner-Iter.     Column Row Layer    Maximum-Head-Change  Column Row Layer    Maximum-Flux-Residual          L2-NORM 
          0                 1           2             4    7     1       0.1291076330E-01       4    7    1         0.6781328723E+00      0.1759985435E+01
          0                 2           2             4    7     1      -0.1279340762E-02       4    7    1        -0.6781338201E-01      0.1756172923E+00
          0                 3           1             4    7     1       0.1140948960E-03       4    7    1         0.6103204208E-02      0.1576977522E-01
          0                 4           1             2   13     1      -0.9171706789E-05       2   13    1        -0.5331930861E-03      0.1365012156E-02

    ------------------------------------------------
       NWT REQUIRED            4 OUTER ITERATIONS 
       AND A TOTAL OF          6 INNER ITERATIONS.
    ------------------------------------------------

 NO OUTPUT CONTROL FOR STRESS PERIOD   22   TIME STEP   16
 
 SOLVING FOR HEAD 
                                                   Max.-Head-Change                         Max.-Flux-Residual
  Residual-Control   Outer-Iter.   Inner-Iter.     Column Row Layer    Maximum-Head-Change  Column Row Layer    Maximum-Flux-Residual          L2-NORM 
          0                 1           2             4    7     1       0.1277678060E-01       4    7    1         0.6713505738E+00      0.1714189613E+01
          0                 2           2             4    7     1      -0.1266064403E-02       4    7    1        -0.6713515954E-01      0.1710776243E+00
          0                 3           1             4    7     1       0.1129108750E-03       4    7    1         0.6042164106E-02      0.1536502334E-01
          0                 4           1             4    7     1      -0.8962095516E-05       4    7    1        -0.4839774797E-03      0.1227655901E-02

    ------------------------------------------------
       NWT REQUIRED            4 OUTER ITERATIONS 
       AND A TOTAL OF          6 INNER ITERATIONS.
    ------------------------------------------------

 NO OUTPUT CONTROL FOR STRESS PERIOD   22   TIME STEP   17
 
 SOLVING FOR HEAD 
                                                   Max.-Head-Change                         Max.-Flux-Residual
  Residual-Control   Outer-Iter.   Inner-Iter.     Column Row Layer    Maximum-Head-Change  Column Row Layer    Maximum-Flux-Residual          L2-NORM 
          0                 1           2             4    7     1       0.1263970377E-01       4    7    1         0.6643835575E+00      0.1670785786E+01
          0                 2           2             4    7     1      -0.1252481426E-02       4    7    1        -0.6643846424E-01      0.1667725846E+00
          0                 3           1             4    7     1       0.1116995093E-03       4    7    1         0.5979461458E-02      0.1498073291E-01
          0                 4           1             4    7     1      -0.8865945813E-05       4    7    1        -0.4789549971E-03      0.1197987360E-02

    ------------------------------------------------
       NWT REQUIRED            4 OUTER ITERATIONS 
       AND A TOTAL OF          6 INNER ITERATIONS.
    ------------------------------------------------

 NO OUTPUT CONTROL FOR STRESS PERIOD   22   TIME STEP   18
 
 SOLVING FOR HEAD 
                                                   Max.-Head-Change                         Max.-Flux-Residual
  Residual-Control   Outer-Iter.   Inner-Iter.     Column Row Layer    Maximum-Head-Change  Column Row Layer    Maximum-Flux-Residual          L2-NORM 
          0                 1           2             4    7     1       0.1250023476E-01       4    7    1         0.6572707811E+00      0.1629599488E+01
          0                 2           2             4    7     1      -0.1238661395E-02       4    7    1        -0.6572719202E-01      0.1626863235E+00
          0                 3           1             4    7     1       0.1104670022E-03       4    7    1         0.5915446901E-02      0.1461614448E-01
          0                 4           1             4    7     1      -0.8768117185E-05       4    7    1        -0.4738274210E-03      0.1168630380E-02

    ------------------------------------------------
       NWT REQUIRED            4 OUTER ITERATIONS 
       AND A TOTAL OF          6 INNER ITERATIONS.
    ------------------------------------------------

 NO OUTPUT CONTROL FOR STRESS PERIOD   22   TIME STEP   19
 
 SOLVING FOR HEAD 
                                                   Max.-Head-Change                         Max.-Flux-Residual
  Residual-Control   Outer-Iter.   Inner-Iter.     Column Row Layer    Maximum-Head-Change  Column Row Layer    Maximum-Flux-Residual          L2-NORM 
          0                 1           2             4    7     1       0.1235822585E-01       4    7    1         0.6500042870E+00      0.1626761212E+01
          0                 2           2             4    7     1      -0.1224589668E-02       4    7    1        -0.6500054713E-01      0.1622207244E+00
          0                 3           1             4    7     1       0.1092120490E-03       4    7    1         0.5850048818E-02      0.1455695879E-01
          0                 4           1             4    7     1      -0.8668508151E-05       4    7    1        -0.4685890412E-03      0.1162271245E-02

    ------------------------------------------------
       NWT REQUIRED            4 OUTER ITERATIONS 
       AND A TOTAL OF          6 INNER ITERATIONS.
    ------------------------------------------------

 NO OUTPUT CONTROL FOR STRESS PERIOD   22   TIME STEP   20
 
 SOLVING FOR HEAD 
                                                   Max.-Head-Change                         Max.-Flux-Residual
  Residual-Control   Outer-Iter.   Inner-Iter.     Column Row Layer    Maximum-Head-Change  Column Row Layer    Maximum-Flux-Residual          L2-NORM 
          0                 1           2             4    7     1       0.1221432897E-01       4    7    1         0.6426207914E+00      0.1585537886E+01
          0                 2           2             4    7     1      -0.1210330850E-02       4    7    1        -0.6426220134E-01      0.1581465863E+00
          0                 3           1             4    7     1       0.1079404097E-03       4    7    1         0.5783597625E-02      0.1419535809E-01
          0                 4           1             4    7     1      -0.8567573546E-05       4    7    1        -0.4632662883E-03      0.1134137859E-02

    ------------------------------------------------
       NWT REQUIRED            4 OUTER ITERATIONS 
       AND A TOTAL OF          6 INNER ITERATIONS.
    ------------------------------------------------

 NO OUTPUT CONTROL FOR STRESS PERIOD   22   TIME STEP   21
 
 SOLVING FOR HEAD 
                                                   Max.-Head-Change                         Max.-Flux-Residual
  Residual-Control   Outer-Iter.   Inner-Iter.     Column Row Layer    Maximum-Head-Change  Column Row Layer    Maximum-Flux-Residual          L2-NORM 
          0                 1           2             4    7     1       0.1206889483E-01       4    7    1         0.6351393293E+00      0.1546484895E+01
          0                 2           2             4    7     1      -0.1195919692E-02       4    7    1        -0.6351405818E-01      0.1542492941E+00
          0                 3           1             4    7     1       0.1066551853E-03       4    7    1         0.5716264715E-02      0.1384852453E-01
          0                 4           1             4    7     1      -0.8465561353E-05       4    7    1        -0.4578729354E-03      0.1106539578E-02

    ------------------------------------------------
       NWT REQUIRED            4 OUTER ITERATIONS 
       AND A TOTAL OF          6 INNER ITERATIONS.
    ------------------------------------------------

 NO OUTPUT CONTROL FOR STRESS PERIOD   22   TIME STEP   22
 
 SOLVING FOR HEAD 
                                                   Max.-Head-Change                         Max.-Flux-Residual
  Residual-Control   Outer-Iter.   Inner-Iter.     Column Row Layer    Maximum-Head-Change  Column Row Layer    Maximum-Flux-Residual          L2-NORM 
          0                 1           2             4    7     1       0.1192197022E-01       4    7    1         0.6275633023E+00      0.1509523541E+01
          0                 2           2             4    7     1      -0.1181360832E-02       4    7    1        -0.6275645787E-01      0.1506294524E+00
          0                 3           1             4    7     1       0.1053567882E-03       4    7    1         0.5648080662E-02      0.1352644176E-01
          0                 4           1             4    7     1      -0.8362503208E-05       4    7    1        -0.4524113751E-03      0.1081893125E-02

    ------------------------------------------------
       NWT REQUIRED            4 OUTER ITERATIONS 
       AND A TOTAL OF          6 INNER ITERATIONS.
    ------------------------------------------------

 NO OUTPUT CONTROL FOR STRESS PERIOD   22   TIME STEP   23
 
 SOLVING FOR HEAD 
                                                   Max.-Head-Change                         Max.-Flux-Residual
  Residual-Control   Outer-Iter.   Inner-Iter.     Column Row Layer    Maximum-Head-Change  Column Row Layer    Maximum-Flux-Residual          L2-NORM 
          0                 1           2             4    7     1       0.1177440664E-01       4    7    1         0.6199395258E+00      0.1474394257E+01
          0                 2           2             4    7     1      -0.1166738648E-02       4    7    1        -0.6199408207E-01      0.1471513047E+00
          0                 3           1             4    7     1       0.1040527443E-03       4    7    1         0.5579466813E-02      0.1321672271E-01
          0                 4           1             4    7     1      -0.8258997529E-05       4    7    1        -0.4469154314E-03      0.1056572678E-02

    ------------------------------------------------
       NWT REQUIRED            4 OUTER ITERATIONS 
       AND A TOTAL OF          6 INNER ITERATIONS.
    ------------------------------------------------

 NO OUTPUT CONTROL FOR STRESS PERIOD   22   TIME STEP   24
 
 SOLVING FOR HEAD 
                                                   Max.-Head-Change                         Max.-Flux-Residual
  Residual-Control   Outer-Iter.   Inner-Iter.     Column Row Layer    Maximum-Head-Change  Column Row Layer    Maximum-Flux-Residual          L2-NORM 
          0                 1           2             4    7     1       0.1162618555E-01       4    7    1         0.6122677964E+00      0.1440958230E+01
          0                 2           2             4    7     1      -0.1152051304E-02       4    7    1        -0.6122691047E-01      0.1438386157E+00
          0                 3           1             4    7     1       0.1027428881E-03       4    7    1         0.5510421326E-02      0.1292113583E-01
          0                 4           1             4    7     1      -0.8155029469E-05       4    7    1        -0.4413848537E-03      0.1032762327E-02

    ------------------------------------------------
       NWT REQUIRED            4 OUTER ITERATIONS 
       AND A TOTAL OF          6 INNER ITERATIONS.
    ------------------------------------------------

 NO OUTPUT CONTROL FOR STRESS PERIOD   22   TIME STEP   25
 
 SOLVING FOR HEAD 
                                                   Max.-Head-Change                         Max.-Flux-Residual
  Residual-Control   Outer-Iter.   Inner-Iter.     Column Row Layer    Maximum-Head-Change  Column Row Layer    Maximum-Flux-Residual          L2-NORM 
          0                 1           2             4    7     1       0.1147756099E-01       4    7    1         0.6045619482E+00      0.1409112928E+01
          0                 2           2             4    7     1      -0.1137323973E-02       4    7    1        -0.6045632652E-01      0.1406814744E+00
          0                 3           1             4    7     1       0.1014294672E-03       4    7    1         0.5441068776E-02      0.1263959933E-01
          0                 4           1             4    7     1      -0.8050779357E-05       4    7    1        -0.4358297303E-03      0.1010723375E-02

    ------------------------------------------------
       NWT REQUIRED            4 OUTER ITERATIONS 
       AND A TOTAL OF          6 INNER ITERATIONS.
    ------------------------------------------------

 NO OUTPUT CONTROL FOR STRESS PERIOD   22   TIME STEP   26
 
 SOLVING FOR HEAD 
                                                   Max.-Head-Change                         Max.-Flux-Residual
  Residual-Control   Outer-Iter.   Inner-Iter.     Column Row Layer    Maximum-Head-Change  Column Row Layer    Maximum-Flux-Residual          L2-NORM 
          0                 1           2             4    7     1       0.1132849272E-01       4    7    1         0.5968203653E+00      0.1378722368E+01
          0                 2           2             4    7     1      -0.1122552667E-02       4    7    1        -0.5968216865E-01      0.1376673659E+00
          0                 3           1             4    7     1       0.1001121240E-03       4    7    1         0.5371394566E-02      0.1237079918E-01
          0                 4           1             4    7     1      -0.7946217991E-05       4    7    1        -0.4302488296E-03      0.9893269341E-03

    ------------------------------------------------
       NWT REQUIRED            4 OUTER ITERATIONS 
       AND A TOTAL OF          6 INNER ITERATIONS.
    ------------------------------------------------

 NO OUTPUT CONTROL FOR STRESS PERIOD   22   TIME STEP   27
 
 SOLVING FOR HEAD 
                                                   Max.-Head-Change                         Max.-Flux-Residual
  Residual-Control   Outer-Iter.   Inner-Iter.     Column Row Layer    Maximum-Head-Change  Column Row Layer    Maximum-Flux-Residual          L2-NORM 
          0                 1           2             4    7     1       0.1117947364E-01       4    7    1         0.5890705539E+00      0.1349676513E+01
          0                 2           2             4    7     1      -0.1107786230E-02       4    7    1        -0.5890718757E-01      0.1347846103E+00
          0                 3           1             4    7     1       0.9879521435E-04       4    7    1         0.5301646223E-02      0.1211336913E-01

    ------------------------------------------------
       NWT REQUIRED            3 OUTER ITERATIONS 
       AND A TOTAL OF          5 INNER ITERATIONS.
    ------------------------------------------------

 NO OUTPUT CONTROL FOR STRESS PERIOD   22   TIME STEP   28
 
 SOLVING FOR HEAD 
                                                   Max.-Head-Change                         Max.-Flux-Residual
  Residual-Control   Outer-Iter.   Inner-Iter.     Column Row Layer    Maximum-Head-Change  Column Row Layer    Maximum-Flux-Residual          L2-NORM 
          0                 1           2             4    7     1       0.1103083652E-01       4    7    1         0.5813311661E+00      0.1321883917E+01
          0                 2           2             4    7     1      -0.1093057637E-02       4    7    1        -0.5813324853E-01      0.1320248143E+00
          0                 3           1             4    7     1       0.9748168098E-04       4    7    1         0.5231991720E-02      0.1186701996E-01

    ------------------------------------------------
       NWT REQUIRED            3 OUTER ITERATIONS 
       AND A TOTAL OF          5 INNER ITERATIONS.
    ------------------------------------------------

 NO OUTPUT CONTROL FOR STRESS PERIOD   22   TIME STEP   29
 
 SOLVING FOR HEAD 
                                                   Max.-Head-Change                         Max.-Flux-Residual
  Residual-Control   Outer-Iter.   Inner-Iter.     Column Row Layer    Maximum-Head-Change  Column Row Layer    Maximum-Flux-Residual          L2-NORM 
          0                 1           2             4    7     1       0.1088227775E-01       4    7    1         0.5735889468E+00      0.1297776595E+01
          0                 2           2             4    7     1      -0.1078336803E-02       4    7    1        -0.5735902610E-01      0.1297311530E+00
          0                 3           1             4    7     1       0.9616883918E-04       4    7    1         0.5162311700E-02      0.1167124055E-01

    ------------------------------------------------
       NWT REQUIRED            3 OUTER ITERATIONS 
       AND A TOTAL OF          5 INNER ITERATIONS.
    ------------------------------------------------

 NO OUTPUT CONTROL FOR STRESS PERIOD   22   TIME STEP   30



 STREAM LISTING     PERIOD     22   STEP       30

 LAYER ROW COL. STREAM  RCH.  FLOW INTO     FLOW TO   FLOW OUT OF   OVRLND.     DIRECT     STREAM       STREAM     STREAM     STREAM   STREAMBED  STREAMBED
                SEG.NO.  NO.  STRM. RCH.    AQUIFER    STRM. RCH.    RUNOFF     PRECIP       ET          HEAD       DEPTH      WIDTH   CONDCTNC.   GRADIENT

   1    1    1     1     1    4.0274E+00  8.8097E-02   3.9393E+00  0.000E+00  0.000E+00  0.000E+00  1.09375E+03  6.990E-01  5.293E+00  2.382E-02  1.233E+00
   1    2    2     1     2    3.9393E+00  1.3548E-01   3.8038E+00  0.000E+00  0.000E+00  0.000E+00  1.08875E+03  6.921E-01  5.242E+00  3.670E-02  1.231E+00
   1    3    3     1     3    3.8038E+00  1.1461E-01   3.6892E+00  0.000E+00  0.000E+00  0.000E+00  1.08310E+03  6.842E-01  5.185E+00  3.111E-02  1.228E+00
   1    3    4     1     4    3.6892E+00  1.0476E-01   3.5844E+00  0.000E+00  0.000E+00  0.000E+00  1.07809E+03  6.772E-01  5.133E+00  2.849E-02  1.226E+00
   1    4    5     2     1    1.5844E+00  2.5113E-01   1.3333E+00  0.000E+00  0.000E+00  0.000E+00  1.07215E+03  2.196E-01  1.200E+01  7.800E-02  1.073E+00
   1    5    6     2     2    1.3333E+00  1.9193E-01   1.1414E+00  0.000E+00  0.000E+00  0.000E+00  1.06671E+03  1.989E-01  1.200E+01  6.000E-02  1.066E+00
   1    6    6     2     3    1.1414E+00  1.9079E-01   9.5059E-01  0.000E+00  0.000E+00  0.000E+00  1.06197E+03  1.798E-01  1.200E+01  6.000E-02  1.060E+00
   1    7    6     2     4    9.5059E-01  1.8957E-01   7.6102E-01  0.000E+00  0.000E+00  0.000E+00  1.05723E+03  1.594E-01  1.200E+01  6.000E-02  1.053E+00
   1    8    6     2     5    7.6102E-01  1.8824E-01   5.7279E-01  0.000E+00  0.000E+00  0.000E+00  1.05250E+03  1.373E-01  1.200E+01  6.000E-02  1.046E+00
   1    3    5     3     1    2.0000E+00  2.8252E-01   1.7175E+00  0.000E+00  0.000E+00  0.000E+00  1.07555E+03  1.909E+00  9.636E+00  7.227E-02  1.955E+00
   1    3    6     3     2    1.7175E+00  2.4905E-01   1.4684E+00  0.000E+00  0.000E+00  0.000E+00  1.07264E+03  1.727E+00  8.909E+00  6.682E-02  1.864E+00
   1    3    7     3     3    1.4684E+00  1.9718E-01   1.2712E+00  0.000E+00  0.000E+00  0.000E+00  1.06987E+03  1.555E+00  8.218E+00  5.547E-02  1.777E+00
   1    4    8     3     4    1.2712E+00  2.2567E-01   1.0456E+00  0.000E+00  0.000E+00  0.000E+00  1.06682E+03  1.364E+00  7.455E+00  6.709E-02  1.682E+00
   1    5    8     3     5    1.0456E+00  1.5790E-01   8.8768E-01  0.000E+00  0.000E+00  0.000E+00  1.06362E+03  1.164E+00  6.655E+00  4.991E-02  1.582E+00
   1    6    8     3     6    8.8768E-01  5.5980E-02   8.3170E-01  0.000E+00  0.000E+00  0.000E+00  1.06158E+03  1.036E+00  6.145E+00  1.844E-02  1.518E+00
   1    5   10     4     1    1.0000E+01  9.0919E-02   9.9091E+00  0.000E+00  0.000E+00  0.000E+00  1.07836E+03  6.368E-01  1.000E+01  2.500E-02  1.212E+00
   1    5    9     4     2    9.9091E+00  1.8158E-01   9.7275E+00  0.000E+00  0.000E+00  0.000E+00  1.07154E+03  6.315E-01  1.000E+01  5.000E-02  1.211E+00
   1    6    8     4     3    9.7275E+00  1.2689E-01   9.6006E+00  0.000E+00  0.000E+00  0.000E+00  1.06381E+03  6.256E-01  1.000E+01  3.500E-02  1.209E+00
   1    6    8     5     1    1.0432E+01  2.2686E-01   1.0205E+01  0.000E+00  0.000E+00  0.000E+00  1.05868E+03  6.790E-01  1.542E+01  6.166E-02  1.226E+00
   1    7    7     5     2    1.0205E+01  2.7894E-01   9.9265E+00  0.000E+00  0.000E+00  0.000E+00  1.05417E+03  6.732E-01  1.519E+01  7.594E-02  1.224E+00
   1    8    7     5     3    9.9265E+00  1.9221E-01   9.7343E+00  0.000E+00  0.000E+00  0.000E+00  1.04992E+03  6.676E-01  1.497E+01  5.241E-02  1.223E+00
   1    8    6     5     4    9.7343E+00  1.3577E-01   9.5985E+00  0.000E+00  0.000E+00  0.000E+00  1.04691E+03  6.637E-01  1.482E+01  3.706E-02  1.221E+00
   1    9    6     6     1    1.0171E+01  2.2243E-01   9.9489E+00  0.000E+00  0.000E+00  0.000E+00  1.04343E+03  7.072E-01  1.200E+01  6.000E-02  1.236E+00
   1   10    7     6     2    9.9489E+00  2.2187E-01   9.7270E+00  0.000E+00  0.000E+00  0.000E+00  1.03888E+03  6.978E-01  1.200E+01  6.000E-02  1.233E+00
   1   11    7     6     3    9.7270E+00  2.2130E-01   9.5057E+00  0.000E+00  0.000E+00  0.000E+00  1.03432E+03  6.883E-01  1.200E+01  6.000E-02  1.229E+00
   1   12    7     6     4    9.5057E+00  2.2073E-01   9.2850E+00  0.000E+00  0.000E+00  0.000E+00  1.02977E+03  6.788E-01  1.200E+01  6.000E-02  1.226E+00
   1   13    7     6     5    9.2850E+00 -8.5103E-02   9.3701E+00  0.000E+00  0.000E+00  0.000E+00  1.02658E+03  6.758E-01  1.200E+01  2.400E-01 -1.182E-01
   1   14    9     7     1    1.5000E+02  1.3416E+00   1.4866E+02  0.000E+00  0.000E+00  0.000E+00  1.03987E+03  2.288E+00  5.529E+01  5.593E-01  7.996E-01
   1   13    8     7     2    1.4866E+02  1.8570E+00   1.4680E+02  0.000E+00  0.000E+00  0.000E+00  1.03478E+03  2.279E+00  5.526E+01  6.148E-01  1.007E+00
   1   13    7     7     3    1.4680E+02  1.5357E+00   1.4527E+02  0.000E+00  0.000E+00  0.000E+00  1.02969E+03  2.270E+00  5.522E+01  5.584E-01  9.167E-01
   1   13    6     8     1    1.5464E+02  9.4303E-01   1.5369E+02  0.000E+00  0.000E+00  0.000E+00  1.02472E+03  2.846E+00  4.127E+01  4.205E-01  7.475E-01
   1   13    5     8     2    1.5369E+02  2.7718E-01   1.5342E+02  0.000E+00  0.000E+00  0.000E+00  1.01847E+03  2.842E+00  4.120E+01  4.199E-01  2.200E-01
   1   13    4     8     3    1.5342E+02 -1.9372E+00   1.5535E+02  0.000E+00  0.000E+00  0.000E+00  1.01222E+03  2.847E+00  4.129E+01  4.207E+00 -1.535E-01
   1   13    3     8     4    1.5535E+02 -3.1732E+00   1.5853E+02  0.000E+00  0.000E+00  0.000E+00  1.00599E+03  2.865E+00  4.154E+01  4.233E+00 -2.499E-01
   1   13    2     8     5    1.5853E+02 -2.2603E+00   1.6079E+02  0.000E+00  0.000E+00  0.000E+00  9.99759E+02  2.884E+00  4.181E+01  4.261E+00 -1.768E-01
   1   13    1     8     6    1.6079E+02 -1.4015E+00   1.6219E+02  0.000E+00  0.000E+00  0.000E+00  9.94771E+02  2.896E+00  4.199E+01  2.567E+00 -1.820E-01
   1    6    8     9     1    0.0000E+00  0.0000E+00   0.0000E+00  0.000E+00  0.000E+00  0.000E+00  1.07850E+03  0.000E+00  4.000E+00  0.000E+00  1.000E+00





UNSATURATED ZONE PACKAGE VOLUMETRIC BUDGET FOR  TIME STEP    30 STRESS PERIOD   22
  ------------------------------------------------------------------------------



     CUMULATIVE VOLUMES      L**3       RATES FOR THIS TIME STEP      L**3/T
     ------------------                 ------------------------

           IN:                                      IN:
           ---                                      ---
        INFILTRATION =   127573932.4790          INFILTRATION =       0.0000E+00

          OUT:                                     OUT:
          ----                                     ----
              UZF ET =   100452113.7903                UZF ET =           3.2955
        UZF RECHARGE =       73224.0000          UZF RECHARGE =       0.0000E+00

            IN - OUT =    27048594.6887              IN - OUT =          -3.2955

          STORAGE:                                 STORAGE:
          --------                                 --------
      STORAGE CHANGE =    27048452.8864        STORAGE CHANGE =          -3.2955

 PERCENT DISCREPANCY IS DIFFERENCE BETWEEN IN-OUT MINUS CHANGE IN STORAGE
 DIVIDED BY THE AVERAGE OF IN AND OUT TIMES 100

 PERCENT DISCREPANCY =           0.00     PERCENT DISCREPANCY =          -0.00






1
  VOLUMETRIC BUDGET FOR ENTIRE MODEL AT END OF TIME STEP   30, STRESS PERIOD  22
  ------------------------------------------------------------------------------

     CUMULATIVE VOLUMES      L**3       RATES FOR THIS TIME STEP      L**3/T
     ------------------                 ------------------------

           IN:                                      IN:
           ---                                      ---
    AWU WELLS            =   127500664.0000      AWU WELLS            =           0.0000
    DIVERSION SEGMENTS   =           0.0000      DIVERSION SEGMENTS   =           0.0000
    GW IRRIGATION        =           0.0000      GW IRRIGATION        =           0.0000
    SW IRRIGATION        =           0.0000      SW IRRIGATION        =           0.0000
    EFFICIENCY FACTOR GW =           0.0000      EFFICIENCY FACTOR GW =           0.0000
    EFFICIENCY FACTOR SW =           0.0000      EFFICIENCY FACTOR SW =           0.0000

                TOTAL IN =   127500664.0000                  TOTAL IN =           0.0000

          OUT:                                     OUT:
          ----                                     ----
    AWU WELLS            =           0.0000      AWU WELLS            =           0.0000
    DIVERSION SEGMENTS   =           0.0000      DIVERSION SEGMENTS   =           0.0000
    GW IRRIGATION        =   127500664.0000      GW IRRIGATION        =           0.0000
    SW IRRIGATION        =           0.0000      SW IRRIGATION        =           0.0000
    EFFICIENCY FACTOR GW =           0.0000      EFFICIENCY FACTOR GW =           0.0000
    EFFICIENCY FACTOR SW =           0.0000      EFFICIENCY FACTOR SW =           0.0000

               TOTAL OUT =   127500664.0000                 TOTAL OUT =           0.0000

                IN - OUT =           0.0000                  IN - OUT =           0.0000

     PERCENT DISCREPANCY =           0.00         PERCENT DISCREPANCY =           0.00



1
  VOLUMETRIC BUDGET FOR ENTIRE MODEL AT END OF TIME STEP   30, STRESS PERIOD  22
  ------------------------------------------------------------------------------

     CUMULATIVE VOLUMES      L**3       RATES FOR THIS TIME STEP      L**3/T
     ------------------                 ------------------------

           IN:                                      IN:
           ---                                      ---
             STORAGE     =   223362288.0000               STORAGE     =           3.8322
       CONSTANT HEAD     =           0.0000         CONSTANT HEAD     =           0.0000
     HEAD DEP BOUNDS     =    15806960.0000       HEAD DEP BOUNDS     =           0.2862
      STREAM LEAKAGE     =   653485760.0000        STREAM LEAKAGE     =          10.6969
        UZF RECHARGE     =       73223.9531          UZF RECHARGE     =           0.0000
               GW ET     =           0.0000                 GW ET     =           0.0000
     SURFACE LEAKAGE     =           0.0000       SURFACE LEAKAGE     =           0.0000
    AWU WELLS            =           0.0000      AWU WELLS            =           0.0000

                TOTAL IN =   892728192.0000                  TOTAL IN =          14.8153

          OUT:                                     OUT:
          ----                                     ----
             STORAGE     =   116395680.0000               STORAGE     =           3.3356
       CONSTANT HEAD     =           0.0000         CONSTANT HEAD     =           0.0000
     HEAD DEP BOUNDS     =    15803985.0000       HEAD DEP BOUNDS     =           0.2780
      STREAM LEAKAGE     =   525070656.0000        STREAM LEAKAGE     =           8.8572
        UZF RECHARGE     =           0.0000          UZF RECHARGE     =           0.0000
               GW ET     =   107943584.0000                 GW ET     =           2.3441
     SURFACE LEAKAGE     =           0.0000       SURFACE LEAKAGE     =           0.0000
    AWU WELLS            =   127500664.0000      AWU WELLS            =           0.0000

               TOTAL OUT =   892714624.0000                 TOTAL OUT =          14.8150

                IN - OUT =       13568.0000                  IN - OUT =       3.5858E-04

     PERCENT DISCREPANCY =           0.00         PERCENT DISCREPANCY =           0.00






         TIME SUMMARY AT END OF TIME STEP   30 IN STRESS PERIOD   22
                    SECONDS     MINUTES      HOURS       DAYS        YEARS
                    -----------------------------------------------------------
   TIME STEP LENGTH  87600.      1460.0      24.333      1.0139     2.77588E-03
 STRESS PERIOD TIME 2.62800E+06  43800.      730.00      30.417     8.32763E-02
         TOTAL TIME 5.52744E+07 9.21240E+05  15354.      639.75      1.7515    
1
1
                            STRESS PERIOD NO.   23, LENGTH =   2628000.    
                            -----------------------------------------------

                              NUMBER OF TIME STEPS =    30

                               MULTIPLIER FOR DELT =     1.000

                            INITIAL TIME STEP SIZE =   87600.00    

 REUSING NON-PARAMETER GHB CELLS FROM LAST STRESS PERIOD

      2 GHB CELLS

 REUSING STREAM SEGMENT DATA FROM LAST STRESS PERIOD



            AREAL INFILTRATION RATE
 READING ON UNIT   19 WITH FORMAT: (10F4.0)            

            1           2           3           4           5           6           7           8           9          10
 ........................................................................................................................
   1    0.000       0.000       0.000       0.000       0.000       0.000       0.000       0.000       0.000       0.000    
   2    0.000       0.000       0.000       0.000       0.000       0.000       0.000       0.000       0.000       0.000    
   3    0.000       0.000       0.000       0.000       0.000       0.000       0.000       0.000       0.000       0.000    
   4    0.000       0.000       0.000       0.000       0.000       0.000       0.000       0.000       0.000       0.000    
   5    0.000       0.000       0.000       0.000       0.000       0.000       0.000       0.000       0.000       0.000    
   6    0.000       0.000       0.000       0.000       0.000       0.000       0.000       0.000       0.000       0.000    
   7    0.000       0.000       0.000       0.000       0.000       0.000       0.000       0.000       0.000       0.000    
   8    0.000       0.000       0.000       0.000       0.000       0.000       0.000       0.000       0.000       0.000    
   9    0.000       0.000       0.000       0.000       0.000       0.000       0.000       0.000       0.000       0.000    
  10    0.000       0.000       0.000       0.000       0.000       0.000       0.000       0.000       0.000       0.000    
  11    0.000       0.000       0.000       0.000       0.000       0.000       0.000       0.000       0.000       0.000    
  12    0.000       0.000       0.000       0.000       0.000       0.000       0.000       0.000       0.000       0.000    
  13    0.000       0.000       0.000       0.000       0.000       0.000       0.000       0.000       0.000       0.000    
  14    0.000       0.000       0.000       0.000       0.000       0.000       0.000       0.000       0.000       0.000    
  15    0.000       0.000       0.000       0.000       0.000       0.000       0.000       0.000       0.000       0.000    

                  ET RATE =  1.000000E-10

 USING ET EXTINCTION DEPTH FROM PREVIOUS STRESS PERIOD. CURRENT PERIOD IS:      23

 USING EXTINCTION WATER CONTENT FROM PREVIOUS STRESS PERIOD. CURRENT PERIOD IS:      23

 PROCESSING AWU STRESS PERIOD DATA

 READING AWU STRESS PERIOD DATA

 READING IRRIGATION WELL

 END PROCESSING AWU STRESS PERIOD DATA OPTIONS
 
 SOLVING FOR HEAD 
                                                   Max.-Head-Change                         Max.-Flux-Residual
  Residual-Control   Outer-Iter.   Inner-Iter.     Column Row Layer    Maximum-Head-Change  Column Row Layer    Maximum-Flux-Residual          L2-NORM 
          0                 1           2             1   13     1       0.1187272782E-01       1   13    1         0.6477330620E+00      0.1748487443E+01
          0                 2           2             1   13     1      -0.1146207053E-02       1   13    1        -0.6311758461E-01      0.1732675258E+00
          0                 3           1             5   13     1       0.9961468982E-04       1   13    1         0.5520851557E-02      0.1544487965E-01

    ------------------------------------------------
       NWT REQUIRED            3 OUTER ITERATIONS 
       AND A TOTAL OF          5 INNER ITERATIONS.
    ------------------------------------------------

 NO OUTPUT CONTROL FOR STRESS PERIOD   23   TIME STEP    1
 
 SOLVING FOR HEAD 
                                                   Max.-Head-Change                         Max.-Flux-Residual
  Residual-Control   Outer-Iter.   Inner-Iter.     Column Row Layer    Maximum-Head-Change  Column Row Layer    Maximum-Flux-Residual          L2-NORM 
          0                 1           2             1   13     1       0.1132369282E-01       1   13    1         0.6177855810E+00      0.1685562131E+01
          0                 2           2             1   13     1      -0.1093981180E-02       1   13    1        -0.6024189722E-01      0.1671287103E+00
          0                 3           1             5   13     1       0.9633052277E-04       5   13    1         0.5275385238E-02      0.1490712184E-01

    ------------------------------------------------
       NWT REQUIRED            3 OUTER ITERATIONS 
       AND A TOTAL OF          5 INNER ITERATIONS.
    ------------------------------------------------

 NO OUTPUT CONTROL FOR STRESS PERIOD   23   TIME STEP    2
 
 SOLVING FOR HEAD 
                                                   Max.-Head-Change                         Max.-Flux-Residual
  Residual-Control   Outer-Iter.   Inner-Iter.     Column Row Layer    Maximum-Head-Change  Column Row Layer    Maximum-Flux-Residual          L2-NORM 
          0                 1           2             1   13     1       0.1079926106E-01       1   13    1         0.5891806381E+00      0.1627274116E+01
          0                 2           2             5   13     1      -0.1044688167E-02       1   13    1        -0.5748899026E-01      0.1614683774E+00
          0                 3           1             5   13     1       0.9312895021E-04       5   13    1         0.5101002266E-02      0.1441013430E-01

    ------------------------------------------------
       NWT REQUIRED            3 OUTER ITERATIONS 
       AND A TOTAL OF          5 INNER ITERATIONS.
    ------------------------------------------------

 NO OUTPUT CONTROL FOR STRESS PERIOD   23   TIME STEP    3
 
 SOLVING FOR HEAD 
                                                   Max.-Head-Change                         Max.-Flux-Residual
  Residual-Control   Outer-Iter.   Inner-Iter.     Column Row Layer    Maximum-Head-Change  Column Row Layer    Maximum-Flux-Residual          L2-NORM 
          0                 1           2             1   13     1       0.1029842457E-01       1   13    1         0.5618630579E+00      0.1573165447E+01
          0                 2           2             4    7     1      -0.1020104695E-02       1   13    1        -0.5485750960E-01      0.1561521190E+00
          0                 3           1             4    7     1       0.9097554972E-04       5   13    1         0.4931816617E-02      0.1394415150E-01

    ------------------------------------------------
       NWT REQUIRED            3 OUTER ITERATIONS 
       AND A TOTAL OF          5 INNER ITERATIONS.
    ------------------------------------------------

 NO OUTPUT CONTROL FOR STRESS PERIOD   23   TIME STEP    4
 
 SOLVING FOR HEAD 
                                                   Max.-Head-Change                         Max.-Flux-Residual
  Residual-Control   Outer-Iter.   Inner-Iter.     Column Row Layer    Maximum-Head-Change  Column Row Layer    Maximum-Flux-Residual          L2-NORM 
          0                 1           2             4    7     1       0.1014972998E-01       1   13    1         0.5357733778E+00      0.1522810775E+01
          0                 2           2             4    7     1      -0.1005747883E-02       4    7    1        -0.5352997220E-01      0.1512299124E+00
          0                 3           1             4    7     1       0.8969517296E-04       4    7    1         0.4817696877E-02      0.1351143259E-01

    ------------------------------------------------
       NWT REQUIRED            3 OUTER ITERATIONS 
       AND A TOTAL OF          5 INNER ITERATIONS.
    ------------------------------------------------

 NO OUTPUT CONTROL FOR STRESS PERIOD   23   TIME STEP    5
 
 SOLVING FOR HEAD 
                                                   Max.-Head-Change                         Max.-Flux-Residual
  Residual-Control   Outer-Iter.   Inner-Iter.     Column Row Layer    Maximum-Head-Change  Column Row Layer    Maximum-Flux-Residual          L2-NORM 
          0                 1           2             4    7     1       0.1000627081E-01       4    7    1         0.5277805655E+00      0.1475883205E+01
          0                 2           2             4    7     1      -0.9915323560E-03       4    7    1        -0.5277818031E-01      0.1466392696E+00
          0                 3           1             4    7     1       0.8842739552E-04       4    7    1         0.4750035590E-02      0.1310847218E-01

    ------------------------------------------------
       NWT REQUIRED            3 OUTER ITERATIONS 
       AND A TOTAL OF          5 INNER ITERATIONS.
    ------------------------------------------------

 NO OUTPUT CONTROL FOR STRESS PERIOD   23   TIME STEP    6
 
 SOLVING FOR HEAD 
                                                   Max.-Head-Change                         Max.-Flux-Residual
  Residual-Control   Outer-Iter.   Inner-Iter.     Column Row Layer    Maximum-Head-Change  Column Row Layer    Maximum-Flux-Residual          L2-NORM 
          0                 1           2             4    7     1       0.9864043673E-02       4    7    1         0.5203218521E+00      0.1432074047E+01
          0                 2           2             4    7     1      -0.9774389125E-03       4    7    1        -0.5203230718E-01      0.1423508479E+00
          0                 3           1             4    7     1       0.8717050639E-04       4    7    1         0.4682907030E-02      0.1273085526E-01

    ------------------------------------------------
       NWT REQUIRED            3 OUTER ITERATIONS 
       AND A TOTAL OF          5 INNER ITERATIONS.
    ------------------------------------------------

 NO OUTPUT CONTROL FOR STRESS PERIOD   23   TIME STEP    7
 
 SOLVING FOR HEAD 
                                                   Max.-Head-Change                         Max.-Flux-Residual
  Residual-Control   Outer-Iter.   Inner-Iter.     Column Row Layer    Maximum-Head-Change  Column Row Layer    Maximum-Flux-Residual          L2-NORM 
          0                 1           2             4    7     1       0.9722858192E-02       4    7    1         0.5129122699E+00      0.1391066888E+01
          0                 2           2             4    7     1      -0.9634486850E-03       4    7    1        -0.5129134704E-01      0.1383331023E+00
          0                 3           1             4    7     1       0.8592282208E-04       4    7    1         0.4616220629E-02      0.1237765309E-01

    ------------------------------------------------
       NWT REQUIRED            3 OUTER ITERATIONS 
       AND A TOTAL OF          5 INNER ITERATIONS.
    ------------------------------------------------

 NO OUTPUT CONTROL FOR STRESS PERIOD   23   TIME STEP    8
 
 SOLVING FOR HEAD 
                                                   Max.-Head-Change                         Max.-Flux-Residual
  Residual-Control   Outer-Iter.   Inner-Iter.     Column Row Layer    Maximum-Head-Change  Column Row Layer    Maximum-Flux-Residual          L2-NORM 
          0                 1           2             4    7     1       0.9583339111E-02       4    7    1         0.5055863427E+00      0.1352637099E+01
          0                 2           2             4    7     1      -0.9496235816E-03       4    7    1        -0.5055875233E-01      0.1345649728E+00
          0                 3           1             4    7     1       0.8468986361E-04       4    7    1         0.4550287106E-02      0.1204505470E-01

    ------------------------------------------------
       NWT REQUIRED            3 OUTER ITERATIONS 
       AND A TOTAL OF          5 INNER ITERATIONS.
    ------------------------------------------------

 NO OUTPUT CONTROL FOR STRESS PERIOD   23   TIME STEP    9
 
 SOLVING FOR HEAD 
                                                   Max.-Head-Change                         Max.-Flux-Residual
  Residual-Control   Outer-Iter.   Inner-Iter.     Column Row Layer    Maximum-Head-Change  Column Row Layer    Maximum-Flux-Residual          L2-NORM 
          0                 1           2             4    7     1       0.9445005835E-02       4    7    1         0.4983172827E+00      0.1316540607E+01
          0                 2           2             4    7     1      -0.9359159794E-03       4    7    1        -0.4983184424E-01      0.1310228700E+00
          0                 3           1             4    7     1       0.8346738481E-04       4    7    1         0.4484865394E-02      0.1173260111E-01

    ------------------------------------------------
       NWT REQUIRED            3 OUTER ITERATIONS 
       AND A TOTAL OF          5 INNER ITERATIONS.
    ------------------------------------------------

 NO OUTPUT CONTROL FOR STRESS PERIOD   23   TIME STEP   10
 
 SOLVING FOR HEAD 
                                                   Max.-Head-Change                         Max.-Flux-Residual
  Residual-Control   Outer-Iter.   Inner-Iter.     Column Row Layer    Maximum-Head-Change  Column Row Layer    Maximum-Flux-Residual          L2-NORM 
          0                 1           2             4    7     1       0.9308189866E-02       4    7    1         0.4911245568E+00      0.1282559664E+01
          0                 2           2             4    7     1      -0.9223587276E-03       4    7    1        -0.4911256950E-01      0.1276853997E+00
          0                 3           1             4    7     1       0.8225831453E-04       4    7    1         0.4420130687E-02      0.1143804412E-01

    ------------------------------------------------
       NWT REQUIRED            3 OUTER ITERATIONS 
       AND A TOTAL OF          5 INNER ITERATIONS.
    ------------------------------------------------

 NO OUTPUT CONTROL FOR STRESS PERIOD   23   TIME STEP   11
 
 SOLVING FOR HEAD 
                                                   Max.-Head-Change                         Max.-Flux-Residual
  Residual-Control   Outer-Iter.   Inner-Iter.     Column Row Layer    Maximum-Head-Change  Column Row Layer    Maximum-Flux-Residual          L2-NORM 
          0                 1           2             4    7     1       0.9173213017E-02       4    7    1         0.4840253659E+00      0.1250526785E+01
          0                 2           2             4    7     1      -0.9089837159E-03       4    7    1        -0.4840264827E-01      0.1245363847E+00
          0                 3           1             4    7     1       0.8106549641E-04       4    7    1         0.4356237777E-02      0.1115937495E-01

    ------------------------------------------------
       NWT REQUIRED            3 OUTER ITERATIONS 
       AND A TOTAL OF          5 INNER ITERATIONS.
    ------------------------------------------------

 NO OUTPUT CONTROL FOR STRESS PERIOD   23   TIME STEP   12
 
 SOLVING FOR HEAD 
                                                   Max.-Head-Change                         Max.-Flux-Residual
  Residual-Control   Outer-Iter.   Inner-Iter.     Column Row Layer    Maximum-Head-Change  Column Row Layer    Maximum-Flux-Residual          L2-NORM 
          0                 1           2             4    7     1       0.9039559206E-02       4    7    1         0.4769920019E+00      0.1220256091E+01
          0                 2           2             4    7     1      -0.8957398044E-03       4    7    1        -0.4769930965E-01      0.1215594537E+00
          0                 3           1             4    7     1       0.7988437090E-04       4    7    1         0.4292937312E-02      0.1089670727E-01

    ------------------------------------------------
       NWT REQUIRED            3 OUTER ITERATIONS 
       AND A TOTAL OF          5 INNER ITERATIONS.
    ------------------------------------------------

 NO OUTPUT CONTROL FOR STRESS PERIOD   23   TIME STEP   13
 
 SOLVING FOR HEAD 
                                                   Max.-Head-Change                         Max.-Flux-Residual
  Residual-Control   Outer-Iter.   Inner-Iter.     Column Row Layer    Maximum-Head-Change  Column Row Layer    Maximum-Flux-Residual          L2-NORM 
          0                 1           2             4    7     1       0.8907820300E-02       4    7    1         0.4700568953E+00      0.1191621870E+01
          0                 2           2             4    7     1      -0.8826856428E-03       4    7    1        -0.4700579678E-01      0.1187401821E+00
          0                 3           1             4    7     1       0.7872016752E-04       4    7    1         0.4230521197E-02      0.1064703085E-01

    ------------------------------------------------
       NWT REQUIRED            3 OUTER ITERATIONS 
       AND A TOTAL OF          5 INNER ITERATIONS.
    ------------------------------------------------

 NO OUTPUT CONTROL FOR STRESS PERIOD   23   TIME STEP   14
 
 SOLVING FOR HEAD 
                                                   Max.-Head-Change                         Max.-Flux-Residual
  Residual-Control   Outer-Iter.   Inner-Iter.     Column Row Layer    Maximum-Head-Change  Column Row Layer    Maximum-Flux-Residual          L2-NORM 
          0                 1           2             4    7     1       0.8777476688E-02       4    7    1         0.4631915464E+00      0.1164472279E+01
          0                 2           2             4    7     1      -0.8697697412E-03       4    7    1        -0.4631925963E-01      0.1160650400E+00
          0                 3           1             4    7     1       0.7756829429E-04       4    7    1         0.4168732859E-02      0.1040980350E-01

    ------------------------------------------------
       NWT REQUIRED            3 OUTER ITERATIONS 
       AND A TOTAL OF          5 INNER ITERATIONS.
    ------------------------------------------------

 NO OUTPUT CONTROL FOR STRESS PERIOD   23   TIME STEP   15
 
 SOLVING FOR HEAD 
                                                   Max.-Head-Change                         Max.-Flux-Residual
  Residual-Control   Outer-Iter.   Inner-Iter.     Column Row Layer    Maximum-Head-Change  Column Row Layer    Maximum-Flux-Residual          L2-NORM 
          0                 1           2             4    7     1       0.8648834282E-02       4    7    1         0.4564134020E+00      0.1138694052E+01
          0                 2           2             4    7     1      -0.8570224136E-03       4    7    1        -0.4564144294E-01      0.1135237732E+00
          0                 3           1             4    7     1       0.7643145487E-04       4    7    1         0.4107729361E-02      0.1018457353E-01

    ------------------------------------------------
       NWT REQUIRED            3 OUTER ITERATIONS 
       AND A TOTAL OF          5 INNER ITERATIONS.
    ------------------------------------------------

 NO OUTPUT CONTROL FOR STRESS PERIOD   23   TIME STEP   16
 
 SOLVING FOR HEAD 
                                                   Max.-Head-Change                         Max.-Flux-Residual
  Residual-Control   Outer-Iter.   Inner-Iter.     Column Row Layer    Maximum-Head-Change  Column Row Layer    Maximum-Flux-Residual          L2-NORM 
          0                 1           2             4    7     1       0.8522187371E-02       4    7    1         0.4497383354E+00      0.1114189206E+01
          0                 2           2             4    7     1      -0.8444728218E-03       4    7    1        -0.4497393404E-01      0.1111108018E+00
          0                 3           1             4    7     1       0.7531225026E-04       4    7    1         0.4047653570E-02      0.9970471801E-02

    ------------------------------------------------
       NWT REQUIRED            3 OUTER ITERATIONS 
       AND A TOTAL OF          5 INNER ITERATIONS.
    ------------------------------------------------

 NO OUTPUT CONTROL FOR STRESS PERIOD   23   TIME STEP   17
 
 SOLVING FOR HEAD 
                                                   Max.-Head-Change                         Max.-Flux-Residual
  Residual-Control   Outer-Iter.   Inner-Iter.     Column Row Layer    Maximum-Head-Change  Column Row Layer    Maximum-Flux-Residual          L2-NORM 
          0                 1           2             4    7     1       0.8396988920E-02       4    7    1         0.4431372062E+00      0.1090837097E+01
          0                 2           2             4    7     1      -0.8320667593E-03       4    7    1        -0.4431381885E-01      0.1087995021E+00
          0                 3           1             4    7     1       0.7420584611E-04       4    7    1         0.3988243229E-02      0.9765188560E-02

    ------------------------------------------------
       NWT REQUIRED            3 OUTER ITERATIONS 
       AND A TOTAL OF          5 INNER ITERATIONS.
    ------------------------------------------------

 NO OUTPUT CONTROL FOR STRESS PERIOD   23   TIME STEP   18
 
 SOLVING FOR HEAD 
                                                   Max.-Head-Change                         Max.-Flux-Residual
  Residual-Control   Outer-Iter.   Inner-Iter.     Column Row Layer    Maximum-Head-Change  Column Row Layer    Maximum-Flux-Residual          L2-NORM 
          0                 1           2             4    7     1       0.8273816744E-02       4    7    1         0.4366408441E+00      0.1068573561E+01
          0                 2           2             4    7     1      -0.8198614824E-03       4    7    1        -0.4366418041E-01      0.1065997938E+00
          0                 3           1             4    7     1       0.7311734839E-04       4    7    1         0.3929775781E-02      0.9569801101E-02

    ------------------------------------------------
       NWT REQUIRED            3 OUTER ITERATIONS 
       AND A TOTAL OF          5 INNER ITERATIONS.
    ------------------------------------------------

 NO OUTPUT CONTROL FOR STRESS PERIOD   23   TIME STEP   19
 
 SOLVING FOR HEAD 
                                                   Max.-Head-Change                         Max.-Flux-Residual
  Residual-Control   Outer-Iter.   Inner-Iter.     Column Row Layer    Maximum-Head-Change  Column Row Layer    Maximum-Flux-Residual          L2-NORM 
          0                 1           2             4    7     1       0.8152385916E-02       4    7    1         0.4302348196E+00      0.1047298433E+01
          0                 2           2             4    7     1      -0.8078287572E-03       4    7    1        -0.4302357575E-01      0.1044956572E+00
          0                 3           1             4    7     1       0.7204423886E-04       4    7    1         0.3872121363E-02      0.9382260596E-02

    ------------------------------------------------
       NWT REQUIRED            3 OUTER ITERATIONS 
       AND A TOTAL OF          5 INNER ITERATIONS.
    ------------------------------------------------

 NO OUTPUT CONTROL FOR STRESS PERIOD   23   TIME STEP   20
 
 SOLVING FOR HEAD 
                                                   Max.-Head-Change                         Max.-Flux-Residual
  Residual-Control   Outer-Iter.   Inner-Iter.     Column Row Layer    Maximum-Head-Change  Column Row Layer    Maximum-Flux-Residual          L2-NORM 
          0                 1           2             4    7     1       0.8032432742E-02       4    7    1         0.4239043470E+00      0.1026954748E+01
          0                 2           2             4    7     1      -0.7959424544E-03       4    7    1        -0.4239052627E-01      0.1024831442E+00
          0                 3           1             4    7     1       0.7098418839E-04       4    7    1         0.3815146933E-02      0.9203563444E-02

    ------------------------------------------------
       NWT REQUIRED            3 OUTER ITERATIONS 
       AND A TOTAL OF          5 INNER ITERATIONS.
    ------------------------------------------------

 NO OUTPUT CONTROL FOR STRESS PERIOD   23   TIME STEP   21
 
 SOLVING FOR HEAD 
                                                   Max.-Head-Change                         Max.-Flux-Residual
  Residual-Control   Outer-Iter.   Inner-Iter.     Column Row Layer    Maximum-Head-Change  Column Row Layer    Maximum-Flux-Residual          L2-NORM 
          0                 1           2             4    7     1       0.7914517075E-02       4    7    1         0.4176801581E+00      0.1007473070E+01
          0                 2           2             4    7     1      -0.7842580507E-03       4    7    1        -0.4176810519E-01      0.1005546761E+00
          0                 3           1             4    7     1       0.6994214357E-04       4    7    1         0.3759129065E-02      0.9032109877E-02

    ------------------------------------------------
       NWT REQUIRED            3 OUTER ITERATIONS 
       AND A TOTAL OF          5 INNER ITERATIONS.
    ------------------------------------------------

 NO OUTPUT CONTROL FOR STRESS PERIOD   23   TIME STEP   22
 
 SOLVING FOR HEAD 
                                                   Max.-Head-Change                         Max.-Flux-Residual
  Residual-Control   Outer-Iter.   Inner-Iter.     Column Row Layer    Maximum-Head-Change  Column Row Layer    Maximum-Flux-Residual          L2-NORM 
          0                 1           2             4    7     1       0.7798346430E-02       4    7    1         0.4115468882E+00      0.9887923823E+00
          0                 2           2             4    7     1      -0.7727465629E-03       4    7    1        -0.4115477605E-01      0.9870357799E-01
          0                 3           1             4    7     1       0.6891551911E-04       4    7    1         0.3703929434E-02      0.8866663452E-02

    ------------------------------------------------
       NWT REQUIRED            3 OUTER ITERATIONS 
       AND A TOTAL OF          5 INNER ITERATIONS.
    ------------------------------------------------

 NO OUTPUT CONTROL FOR STRESS PERIOD   23   TIME STEP   23
 
 SOLVING FOR HEAD 
                                                   Max.-Head-Change                         Max.-Flux-Residual
  Residual-Control   Outer-Iter.   Inner-Iter.     Column Row Layer    Maximum-Head-Change  Column Row Layer    Maximum-Flux-Residual          L2-NORM 
          0                 1           2             4    7     1       0.7683922524E-02       4    7    1         0.4055041652E+00      0.9708603027E+00
          0                 2           2             4    7     1      -0.7614081621E-03       4    7    1        -0.4055050163E-01      0.9692655459E-01
          0                 3           1             4    7     1       0.6790433196E-04       4    7    1         0.3649544764E-02      0.8708595553E-02

    ------------------------------------------------
       NWT REQUIRED            3 OUTER ITERATIONS 
       AND A TOTAL OF          5 INNER ITERATIONS.
    ------------------------------------------------

 NO OUTPUT CONTROL FOR STRESS PERIOD   23   TIME STEP   24
 
 SOLVING FOR HEAD 
                                                   Max.-Head-Change                         Max.-Flux-Residual
  Residual-Control   Outer-Iter.   Inner-Iter.     Column Row Layer    Maximum-Head-Change  Column Row Layer    Maximum-Flux-Residual          L2-NORM 
          0                 1           2             4    7     1       0.7571512263E-02       4    7    1         0.3995668841E+00      0.9536385554E+00
          0                 2           2             4    7     1      -0.7502692952E-03       4    7    1        -0.3995677141E-01      0.9521832588E-01
          0                 3           1             4    7     1       0.6691093951E-04       4    7    1         0.3596109064E-02      0.8555946680E-02

    ------------------------------------------------
       NWT REQUIRED            3 OUTER ITERATIONS 
       AND A TOTAL OF          5 INNER ITERATIONS.
    ------------------------------------------------

 NO OUTPUT CONTROL FOR STRESS PERIOD   23   TIME STEP   25
 
 SOLVING FOR HEAD 
                                                   Max.-Head-Change                         Max.-Flux-Residual
  Residual-Control   Outer-Iter.   Inner-Iter.     Column Row Layer    Maximum-Head-Change  Column Row Layer    Maximum-Flux-Residual          L2-NORM 
          0                 1           2             4    7     1       0.7460551228E-02       4    7    1         0.3937044770E+00      0.9370632516E+00
          0                 2           2             4    7     1      -0.7392740341E-03       4    7    1        -0.3937052864E-01      0.9357420909E-01
          0                 3           1             4    7     1       0.6593035438E-04       4    7    1         0.3543347242E-02      0.8409530869E-02

    ------------------------------------------------
       NWT REQUIRED            3 OUTER ITERATIONS 
       AND A TOTAL OF          5 INNER ITERATIONS.
    ------------------------------------------------

 NO OUTPUT CONTROL FOR STRESS PERIOD   23   TIME STEP   26
 
 SOLVING FOR HEAD 
                                                   Max.-Head-Change                         Max.-Flux-Residual
  Residual-Control   Outer-Iter.   Inner-Iter.     Column Row Layer    Maximum-Head-Change  Column Row Layer    Maximum-Flux-Residual          L2-NORM 
          0                 1           2             4    7     1       0.7351580222E-02       4    7    1         0.3879468804E+00      0.9211016407E+00
          0                 2           2             4    7     1      -0.7284759428E-03       4    7    1        -0.3879476696E-01      0.9199575440E-01
          0                 3           1             4    7     1       0.6496732867E-04       4    7    1         0.3491528686E-02      0.8267715076E-02

    ------------------------------------------------
       NWT REQUIRED            3 OUTER ITERATIONS 
       AND A TOTAL OF          5 INNER ITERATIONS.
    ------------------------------------------------

 NO OUTPUT CONTROL FOR STRESS PERIOD   23   TIME STEP   27
 
 SOLVING FOR HEAD 
                                                   Max.-Head-Change                         Max.-Flux-Residual
  Residual-Control   Outer-Iter.   Inner-Iter.     Column Row Layer    Maximum-Head-Change  Column Row Layer    Maximum-Flux-Residual          L2-NORM 
          0                 1           2             4    7     1       0.7243989709E-02       4    7    1         0.3822629309E+00      0.9057107441E+00
          0                 2           2             4    7     1      -0.7178147010E-03       4    7    1        -0.3822637007E-01      0.9046088137E-01
          0                 3           1             4    7     1       0.6401655576E-04       4    7    1         0.3440372979E-02      0.8131263159E-02

    ------------------------------------------------
       NWT REQUIRED            3 OUTER ITERATIONS 
       AND A TOTAL OF          5 INNER ITERATIONS.
    ------------------------------------------------

 NO OUTPUT CONTROL FOR STRESS PERIOD   23   TIME STEP   28
 
 SOLVING FOR HEAD 
                                                   Max.-Head-Change                         Max.-Flux-Residual
  Residual-Control   Outer-Iter.   Inner-Iter.     Column Row Layer    Maximum-Head-Change  Column Row Layer    Maximum-Flux-Residual          L2-NORM 
          0                 1           2             4    7     1       0.7138326294E-02       4    7    1         0.3766802245E+00      0.8908072550E+00
          0                 2           2             4    7     1      -0.7073443873E-03       4    7    1        -0.3766809749E-01      0.8898156210E-01
          0                 3           1             4    7     1       0.6308278650E-04       4    7    1         0.3390128460E-02      0.7998572082E-02

    ------------------------------------------------
       NWT REQUIRED            3 OUTER ITERATIONS 
       AND A TOTAL OF          5 INNER ITERATIONS.
    ------------------------------------------------

 NO OUTPUT CONTROL FOR STRESS PERIOD   23   TIME STEP   29
 
 SOLVING FOR HEAD 
                                                   Max.-Head-Change                         Max.-Flux-Residual
  Residual-Control   Outer-Iter.   Inner-Iter.     Column Row Layer    Maximum-Head-Change  Column Row Layer    Maximum-Flux-Residual          L2-NORM 
          0                 1           2             4    7     1       0.7034517408E-02       4    7    1         0.3711975129E+00      0.8912274641E+00
          0                 2           2             4    7     1      -0.6970578423E-03       4    7    1        -0.3711982449E-01      0.8903546080E-01
          0                 3           1             4    7     1       0.6216540645E-04       4    7    1         0.3340783922E-02      0.8005189315E-02

    ------------------------------------------------
       NWT REQUIRED            3 OUTER ITERATIONS 
       AND A TOTAL OF          5 INNER ITERATIONS.
    ------------------------------------------------

 NO OUTPUT CONTROL FOR STRESS PERIOD   23   TIME STEP   30



 STREAM LISTING     PERIOD     23   STEP       30

 LAYER ROW COL. STREAM  RCH.  FLOW INTO     FLOW TO   FLOW OUT OF   OVRLND.     DIRECT     STREAM       STREAM     STREAM     STREAM   STREAMBED  STREAMBED
                SEG.NO.  NO.  STRM. RCH.    AQUIFER    STRM. RCH.    RUNOFF     PRECIP       ET          HEAD       DEPTH      WIDTH   CONDCTNC.   GRADIENT

   1    1    1     1     1    3.2000E+00  8.0317E-02   3.1197E+00  0.000E+00  0.000E+00  0.000E+00  1.09369E+03  6.449E-01  4.897E+00  2.204E-02  1.215E+00
   1    2    2     1     2    3.1197E+00  1.2332E-01   2.9964E+00  0.000E+00  0.000E+00  0.000E+00  1.08870E+03  6.376E-01  4.843E+00  3.390E-02  1.213E+00
   1    3    3     1     3    2.9964E+00  1.0413E-01   2.8922E+00  0.000E+00  0.000E+00  0.000E+00  1.08305E+03  6.292E-01  4.782E+00  2.869E-02  1.210E+00
   1    3    4     1     4    2.8922E+00  9.5018E-02   2.7972E+00  0.000E+00  0.000E+00  0.000E+00  1.07803E+03  6.217E-01  4.727E+00  2.624E-02  1.207E+00
   1    4    5     2     1    7.9721E-01  2.4478E-01   5.5243E-01  0.000E+00  0.000E+00  0.000E+00  1.07207E+03  1.382E-01  1.200E+01  7.800E-02  1.046E+00
   1    5    6     2     2    5.5243E-01  1.8658E-01   3.6584E-01  0.000E+00  0.000E+00  0.000E+00  1.06662E+03  1.097E-01  1.200E+01  6.000E-02  1.037E+00
   1    6    6     2     3    3.6584E-01  1.8482E-01   1.8102E-01  0.000E+00  0.000E+00  0.000E+00  1.06187E+03  8.040E-02  1.200E+01  6.000E-02  1.027E+00
   1    7    6     2     4    1.8102E-01  1.8102E-01   0.0000E+00  0.000E+00  0.000E+00  0.000E+00  1.05710E+03  2.119E-02  1.200E+01  6.000E-02  1.007E+00
   1    8    6     2     5    0.0000E+00  0.0000E+00   0.0000E+00  0.000E+00  0.000E+00  0.000E+00  1.05236E+03  0.000E+00  1.200E+01  6.000E-02  1.000E+00
   1    3    5     3     1    2.0000E+00  2.8252E-01   1.7175E+00  0.000E+00  0.000E+00  0.000E+00  1.07555E+03  1.909E+00  9.636E+00  7.227E-02  1.955E+00
   1    3    6     3     2    1.7175E+00  2.4905E-01   1.4684E+00  0.000E+00  0.000E+00  0.000E+00  1.07264E+03  1.727E+00  8.909E+00  6.682E-02  1.864E+00
   1    3    7     3     3    1.4684E+00  1.9718E-01   1.2712E+00  0.000E+00  0.000E+00  0.000E+00  1.06987E+03  1.555E+00  8.218E+00  5.547E-02  1.777E+00
   1    4    8     3     4    1.2712E+00  2.2567E-01   1.0456E+00  0.000E+00  0.000E+00  0.000E+00  1.06682E+03  1.364E+00  7.455E+00  6.709E-02  1.682E+00
   1    5    8     3     5    1.0456E+00  1.5790E-01   8.8768E-01  0.000E+00  0.000E+00  0.000E+00  1.06362E+03  1.164E+00  6.655E+00  4.991E-02  1.582E+00
   1    6    8     3     6    8.8768E-01  5.5980E-02   8.3170E-01  0.000E+00  0.000E+00  0.000E+00  1.06158E+03  1.036E+00  6.145E+00  1.844E-02  1.518E+00
   1    5   10     4     1    1.0000E+01  9.0919E-02   9.9091E+00  0.000E+00  0.000E+00  0.000E+00  1.07836E+03  6.368E-01  1.000E+01  2.500E-02  1.212E+00
   1    5    9     4     2    9.9091E+00  1.8158E-01   9.7275E+00  0.000E+00  0.000E+00  0.000E+00  1.07154E+03  6.315E-01  1.000E+01  5.000E-02  1.211E+00
   1    6    8     4     3    9.7275E+00  1.2689E-01   9.6006E+00  0.000E+00  0.000E+00  0.000E+00  1.06381E+03  6.256E-01  1.000E+01  3.500E-02  1.209E+00
   1    6    8     5     1    1.0432E+01  2.2686E-01   1.0205E+01  0.000E+00  0.000E+00  0.000E+00  1.05868E+03  6.790E-01  1.542E+01  6.166E-02  1.226E+00
   1    7    7     5     2    1.0205E+01  2.7894E-01   9.9265E+00  0.000E+00  0.000E+00  0.000E+00  1.05417E+03  6.732E-01  1.519E+01  7.594E-02  1.224E+00
   1    8    7     5     3    9.9265E+00  1.9221E-01   9.7343E+00  0.000E+00  0.000E+00  0.000E+00  1.04992E+03  6.676E-01  1.497E+01  5.241E-02  1.223E+00
   1    8    6     5     4    9.7343E+00  1.3577E-01   9.5985E+00  0.000E+00  0.000E+00  0.000E+00  1.04691E+03  6.637E-01  1.482E+01  3.706E-02  1.221E+00
   1    9    6     6     1    9.5985E+00  2.2097E-01   9.3776E+00  0.000E+00  0.000E+00  0.000E+00  1.04341E+03  6.828E-01  1.200E+01  6.000E-02  1.228E+00
   1   10    7     6     2    9.3776E+00  2.2039E-01   9.1572E+00  0.000E+00  0.000E+00  0.000E+00  1.03885E+03  6.732E-01  1.200E+01  6.000E-02  1.224E+00
   1   11    7     6     3    9.1572E+00  2.1981E-01   8.9374E+00  0.000E+00  0.000E+00  0.000E+00  1.03430E+03  6.636E-01  1.200E+01  6.000E-02  1.221E+00
   1   12    7     6     4    8.9374E+00  2.1923E-01   8.7181E+00  0.000E+00  0.000E+00  0.000E+00  1.02974E+03  6.539E-01  1.200E+01  6.000E-02  1.218E+00
   1   13    7     6     5    8.7181E+00 -9.4583E-02   8.8127E+00  0.000E+00  0.000E+00  0.000E+00  1.02656E+03  6.511E-01  1.200E+01  2.400E-01 -1.314E-01
   1   14    9     7     1    1.5000E+02  1.3422E+00   1.4866E+02  0.000E+00  0.000E+00  0.000E+00  1.03987E+03  2.288E+00  5.529E+01  5.593E-01  8.000E-01
   1   13    8     7     2    1.4866E+02  1.8596E+00   1.4680E+02  0.000E+00  0.000E+00  0.000E+00  1.03478E+03  2.279E+00  5.526E+01  6.148E-01  1.008E+00
   1   13    7     7     3    1.4680E+02  1.5274E+00   1.4527E+02  0.000E+00  0.000E+00  0.000E+00  1.02969E+03  2.270E+00  5.522E+01  5.584E-01  9.117E-01
   1   13    6     8     1    1.5408E+02  9.0835E-01   1.5318E+02  0.000E+00  0.000E+00  0.000E+00  1.02472E+03  2.842E+00  4.121E+01  4.200E-01  7.210E-01
   1   13    5     8     2    1.5318E+02  1.9358E-01   1.5298E+02  0.000E+00  0.000E+00  0.000E+00  1.01846E+03  2.838E+00  4.116E+01  4.194E-01  1.539E-01
   1   13    4     8     3    1.5298E+02 -2.4069E+00   1.5539E+02  0.000E+00  0.000E+00  0.000E+00  1.01222E+03  2.846E+00  4.127E+01  4.205E+00 -1.908E-01
   1   13    3     8     4    1.5539E+02 -3.6101E+00   1.5900E+02  0.000E+00  0.000E+00  0.000E+00  1.00599E+03  2.867E+00  4.157E+01  4.236E+00 -2.841E-01
   1   13    2     8     5    1.5900E+02 -2.5216E+00   1.6152E+02  0.000E+00  0.000E+00  0.000E+00  9.99763E+02  2.888E+00  4.187E+01  4.267E+00 -1.970E-01
   1   13    1     8     6    1.6152E+02 -1.8422E+00   1.6336E+02  0.000E+00  0.000E+00  0.000E+00  9.94777E+02  2.902E+00  4.208E+01  2.573E+00 -2.387E-01
   1    6    8     9     1    0.0000E+00  0.0000E+00   0.0000E+00  0.000E+00  0.000E+00  0.000E+00  1.07850E+03  0.000E+00  4.000E+00  0.000E+00  1.000E+00





UNSATURATED ZONE PACKAGE VOLUMETRIC BUDGET FOR  TIME STEP    30 STRESS PERIOD   23
  ------------------------------------------------------------------------------



     CUMULATIVE VOLUMES      L**3       RATES FOR THIS TIME STEP      L**3/T
     ------------------                 ------------------------

           IN:                                      IN:
           ---                                      ---
        INFILTRATION =   127573932.4790          INFILTRATION =       0.0000E+00

          OUT:                                     OUT:
          ----                                     ----
              UZF ET =   100488958.5876                UZF ET =           0.0143
        UZF RECHARGE =       73224.0000          UZF RECHARGE =       0.0000E+00

            IN - OUT =    27011749.8914              IN - OUT =          -0.0143

          STORAGE:                                 STORAGE:
          --------                                 --------
      STORAGE CHANGE =    27011608.0891        STORAGE CHANGE =          -0.0143

 PERCENT DISCREPANCY IS DIFFERENCE BETWEEN IN-OUT MINUS CHANGE IN STORAGE
 DIVIDED BY THE AVERAGE OF IN AND OUT TIMES 100

 PERCENT DISCREPANCY =           0.00     PERCENT DISCREPANCY =           0.00






1
  VOLUMETRIC BUDGET FOR ENTIRE MODEL AT END OF TIME STEP   30, STRESS PERIOD  23
  ------------------------------------------------------------------------------

     CUMULATIVE VOLUMES      L**3       RATES FOR THIS TIME STEP      L**3/T
     ------------------                 ------------------------

           IN:                                      IN:
           ---                                      ---
    AWU WELLS            =   127500664.0000      AWU WELLS            =           0.0000
    DIVERSION SEGMENTS   =           0.0000      DIVERSION SEGMENTS   =           0.0000
    GW IRRIGATION        =           0.0000      GW IRRIGATION        =           0.0000
    SW IRRIGATION        =           0.0000      SW IRRIGATION        =           0.0000
    EFFICIENCY FACTOR GW =           0.0000      EFFICIENCY FACTOR GW =           0.0000
    EFFICIENCY FACTOR SW =           0.0000      EFFICIENCY FACTOR SW =           0.0000

                TOTAL IN =   127500664.0000                  TOTAL IN =           0.0000

          OUT:                                     OUT:
          ----                                     ----
    AWU WELLS            =           0.0000      AWU WELLS            =           0.0000
    DIVERSION SEGMENTS   =           0.0000      DIVERSION SEGMENTS   =           0.0000
    GW IRRIGATION        =   127500664.0000      GW IRRIGATION        =           0.0000
    SW IRRIGATION        =           0.0000      SW IRRIGATION        =           0.0000
    EFFICIENCY FACTOR GW =           0.0000      EFFICIENCY FACTOR GW =           0.0000
    EFFICIENCY FACTOR SW =           0.0000      EFFICIENCY FACTOR SW =           0.0000

               TOTAL OUT =   127500664.0000                 TOTAL OUT =           0.0000

                IN - OUT =           0.0000                  IN - OUT =           0.0000

     PERCENT DISCREPANCY =           0.00         PERCENT DISCREPANCY =           0.00



1
  VOLUMETRIC BUDGET FOR ENTIRE MODEL AT END OF TIME STEP   30, STRESS PERIOD  23
  ------------------------------------------------------------------------------

     CUMULATIVE VOLUMES      L**3       RATES FOR THIS TIME STEP      L**3/T
     ------------------                 ------------------------

           IN:                                      IN:
           ---                                      ---
             STORAGE     =   231788480.0000               STORAGE     =           2.9244
       CONSTANT HEAD     =           0.0000         CONSTANT HEAD     =           0.0000
     HEAD DEP BOUNDS     =    16559031.0000       HEAD DEP BOUNDS     =           0.2862
      STREAM LEAKAGE     =   681256768.0000        STREAM LEAKAGE     =          10.3131
        UZF RECHARGE     =       73223.9531          UZF RECHARGE     =           0.0000
               GW ET     =           0.0000                 GW ET     =           0.0000
     SURFACE LEAKAGE     =           0.0000       SURFACE LEAKAGE     =           0.0000
    AWU WELLS            =           0.0000      AWU WELLS            =           0.0000

                TOTAL IN =   929677504.0000                  TOTAL IN =          13.5237

          OUT:                                     OUT:
          ----                                     ----
             STORAGE     =   126442272.0000               STORAGE     =           2.7537
       CONSTANT HEAD     =           0.0000         CONSTANT HEAD     =           0.0000
     HEAD DEP BOUNDS     =    16545817.0000       HEAD DEP BOUNDS     =           0.2847
      STREAM LEAKAGE     =   551207488.0000        STREAM LEAKAGE     =          10.4753
        UZF RECHARGE     =           0.0000          UZF RECHARGE     =           0.0000
               GW ET     =   107968848.0000                 GW ET     =       9.7473E-03
     SURFACE LEAKAGE     =           0.0000       SURFACE LEAKAGE     =           0.0000
    AWU WELLS            =   127500664.0000      AWU WELLS            =           0.0000

               TOTAL OUT =   929665088.0000                 TOTAL OUT =          13.5235

                IN - OUT =       12416.0000                  IN - OUT =       1.2493E-04

     PERCENT DISCREPANCY =           0.00         PERCENT DISCREPANCY =           0.00






         TIME SUMMARY AT END OF TIME STEP   30 IN STRESS PERIOD   23
                    SECONDS     MINUTES      HOURS       DAYS        YEARS
                    -----------------------------------------------------------
   TIME STEP LENGTH  87600.      1460.0      24.333      1.0139     2.77588E-03
 STRESS PERIOD TIME 2.62800E+06  43800.      730.00      30.417     8.32763E-02
         TOTAL TIME 5.79024E+07 9.65040E+05  16084.      670.17      1.8348    
1
1
                            STRESS PERIOD NO.   24, LENGTH =   2628000.    
                            -----------------------------------------------

                              NUMBER OF TIME STEPS =    30

                               MULTIPLIER FOR DELT =     1.000

                            INITIAL TIME STEP SIZE =   87600.00    

 REUSING NON-PARAMETER GHB CELLS FROM LAST STRESS PERIOD

      2 GHB CELLS

 REUSING STREAM SEGMENT DATA FROM LAST STRESS PERIOD



            AREAL INFILTRATION RATE
 READING ON UNIT   19 WITH FORMAT: (10F4.0)            

            1           2           3           4           5           6           7           8           9          10
 ........................................................................................................................
   1    0.000       0.000       0.000       0.000       0.000       0.000       0.000       0.000       0.000       0.000    
   2    0.000       0.000       0.000       0.000       0.000       0.000       0.000       0.000       0.000       0.000    
   3    0.000       0.000       0.000       0.000       0.000       0.000       0.000       0.000       0.000       0.000    
   4    0.000       0.000       0.000       0.000       0.000       0.000       0.000       0.000       0.000       0.000    
   5    0.000       0.000       0.000       0.000       0.000       0.000       0.000       0.000       0.000       0.000    
   6    0.000       0.000       0.000       0.000       0.000       0.000       0.000       0.000       0.000       0.000    
   7    0.000       0.000       0.000       0.000       0.000       0.000       0.000       0.000       0.000       0.000    
   8    0.000       0.000       0.000       0.000       0.000       0.000       0.000       0.000       0.000       0.000    
   9    0.000       0.000       0.000       0.000       0.000       0.000       0.000       0.000       0.000       0.000    
  10    0.000       0.000       0.000       0.000       0.000       0.000       0.000       0.000       0.000       0.000    
  11    0.000       0.000       0.000       0.000       0.000       0.000       0.000       0.000       0.000       0.000    
  12    0.000       0.000       0.000       0.000       0.000       0.000       0.000       0.000       0.000       0.000    
  13    0.000       0.000       0.000       0.000       0.000       0.000       0.000       0.000       0.000       0.000    
  14    0.000       0.000       0.000       0.000       0.000       0.000       0.000       0.000       0.000       0.000    
  15    0.000       0.000       0.000       0.000       0.000       0.000       0.000       0.000       0.000       0.000    

                  ET RATE =  1.000000E-10

 USING ET EXTINCTION DEPTH FROM PREVIOUS STRESS PERIOD. CURRENT PERIOD IS:      24

 USING EXTINCTION WATER CONTENT FROM PREVIOUS STRESS PERIOD. CURRENT PERIOD IS:      24

 PROCESSING AWU STRESS PERIOD DATA

 READING AWU STRESS PERIOD DATA

 READING IRRIGATION WELL

 END PROCESSING AWU STRESS PERIOD DATA OPTIONS
 
 SOLVING FOR HEAD 
                                                   Max.-Head-Change                         Max.-Flux-Residual
  Residual-Control   Outer-Iter.   Inner-Iter.     Column Row Layer    Maximum-Head-Change  Column Row Layer    Maximum-Flux-Residual          L2-NORM 
          0                 1           2             4    7     1       0.6931974484E-02       4    7    1         0.3657814147E+00      0.8752166873E+00
          0                 2           2             4    7     1      -0.6868967427E-03       4    7    1        -0.3657821285E-01      0.8744186663E-01
          0                 3           1             4    7     1       0.6125921359E-04       4    7    1         0.3292038873E-02      0.7862310153E-02

    ------------------------------------------------
       NWT REQUIRED            3 OUTER ITERATIONS 
       AND A TOTAL OF          5 INNER ITERATIONS.
    ------------------------------------------------

 NO OUTPUT CONTROL FOR STRESS PERIOD   24   TIME STEP    1
 
 SOLVING FOR HEAD 
                                                   Max.-Head-Change                         Max.-Flux-Residual
  Residual-Control   Outer-Iter.   Inner-Iter.     Column Row Layer    Maximum-Head-Change  Column Row Layer    Maximum-Flux-Residual          L2-NORM 
          0                 1           2             4    7     1       0.6831223504E-02       4    7    1         0.3604606187E+00      0.8598696757E+00
          0                 2           2             4    7     1      -0.6769132098E-03       4    7    1        -0.3604613150E-01      0.8591344210E-01
          0                 3           1             4    7     1       0.6036885662E-04       4    7    1         0.3244151566E-02      0.7725093180E-02

    ------------------------------------------------
       NWT REQUIRED            3 OUTER ITERATIONS 
       AND A TOTAL OF          5 INNER ITERATIONS.
    ------------------------------------------------

 NO OUTPUT CONTROL FOR STRESS PERIOD   24   TIME STEP    2
 
 SOLVING FOR HEAD 
                                                   Max.-Head-Change                         Max.-Flux-Residual
  Residual-Control   Outer-Iter.   Inner-Iter.     Column Row Layer    Maximum-Head-Change  Column Row Layer    Maximum-Flux-Residual          L2-NORM 
          0                 1           2             4    7     1       0.6731952829E-02       4    7    1         0.3552179963E+00      0.8451256654E+00
          0                 2           2             4    7     1      -0.6670763614E-03       4    7    1        -0.3552186751E-01      0.8443576610E-01
          0                 3           1             4    7     1       0.5949158106E-04       4    7    1         0.3196967802E-02      0.7592867454E-02

    ------------------------------------------------
       NWT REQUIRED            3 OUTER ITERATIONS 
       AND A TOTAL OF          5 INNER ITERATIONS.
    ------------------------------------------------

 NO OUTPUT CONTROL FOR STRESS PERIOD   24   TIME STEP    3
 
 SOLVING FOR HEAD 
                                                   Max.-Head-Change                         Max.-Flux-Residual
  Residual-Control   Outer-Iter.   Inner-Iter.     Column Row Layer    Maximum-Head-Change  Column Row Layer    Maximum-Flux-Residual          L2-NORM 
          0                 1           2             4    7     1       0.6634137256E-02       4    7    1         0.3500521842E+00      0.8309642626E+00
          0                 2           2             4    7     1      -0.6573837017E-03       4    7    1        -0.3500528461E-01      0.8303463307E-01
          0                 3           1             4    7     1       0.5862716489E-04       4    7    1         0.3150475356E-02      0.7467386600E-02

    ------------------------------------------------
       NWT REQUIRED            3 OUTER ITERATIONS 
       AND A TOTAL OF          5 INNER ITERATIONS.
    ------------------------------------------------

 NO OUTPUT CONTROL FOR STRESS PERIOD   24   TIME STEP    4
 
 SOLVING FOR HEAD 
                                                   Max.-Head-Change                         Max.-Flux-Residual
  Residual-Control   Outer-Iter.   Inner-Iter.     Column Row Layer    Maximum-Head-Change  Column Row Layer    Maximum-Flux-Residual          L2-NORM 
          0                 1           2             4    7     1       0.6537757489E-02       4    7    1         0.3449618747E+00      0.8173196003E+00
          0                 2           2             4    7     1      -0.6478333180E-03       4    7    1        -0.3449625202E-01      0.8167497547E-01
          0                 3           1             4    7     1       0.5777543742E-04       4    7    1         0.3104662441E-02      0.7345601510E-02

    ------------------------------------------------
       NWT REQUIRED            3 OUTER ITERATIONS 
       AND A TOTAL OF          5 INNER ITERATIONS.
    ------------------------------------------------

 NO OUTPUT CONTROL FOR STRESS PERIOD   24   TIME STEP    5
 
 SOLVING FOR HEAD 
                                                   Max.-Head-Change                         Max.-Flux-Residual
  Residual-Control   Outer-Iter.   Inner-Iter.     Column Row Layer    Maximum-Head-Change  Column Row Layer    Maximum-Flux-Residual          L2-NORM 
          0                 1           2             4    7     1       0.6443069340E-02       4    7    1         0.3399608748E+00      0.8041918464E+00
          0                 2           2             4    7     1      -0.6384505586E-03       4    7    1        -0.3399615042E-01      0.8042502068E-01
          0                 3           1             4    7     1       0.5693865929E-04       4    7    1         0.3059653302E-02      0.7233194910E-02

    ------------------------------------------------
       NWT REQUIRED            3 OUTER ITERATIONS 
       AND A TOTAL OF          5 INNER ITERATIONS.
    ------------------------------------------------

 NO OUTPUT CONTROL FOR STRESS PERIOD   24   TIME STEP    6
 
 SOLVING FOR HEAD 
                                                   Max.-Head-Change                         Max.-Flux-Residual
  Residual-Control   Outer-Iter.   Inner-Iter.     Column Row Layer    Maximum-Head-Change  Column Row Layer    Maximum-Flux-Residual          L2-NORM 
          0                 1           2             4    7     1       0.6349765401E-02       4    7    1         0.3350328422E+00      0.7914666034E+00
          0                 2           2             4    7     1      -0.6292049623E-03       4    7    1        -0.3350334558E-01      0.7909837647E-01
          0                 3           1             4    7     1       0.5611411332E-04       4    7    1         0.3015300876E-02      0.7114271942E-02

    ------------------------------------------------
       NWT REQUIRED            3 OUTER ITERATIONS 
       AND A TOTAL OF          5 INNER ITERATIONS.
    ------------------------------------------------

 NO OUTPUT CONTROL FOR STRESS PERIOD   24   TIME STEP    7
 
 SOLVING FOR HEAD 
                                                   Max.-Head-Change                         Max.-Flux-Residual
  Residual-Control   Outer-Iter.   Inner-Iter.     Column Row Layer    Maximum-Head-Change  Column Row Layer    Maximum-Flux-Residual          L2-NORM 
          0                 1           2             4    7     1       0.6257830745E-02       4    7    1         0.3301766339E+00      0.7791487265E+00
          0                 2           2             4    7     1      -0.6200950500E-03       4    7    1        -0.3301772319E-01      0.7787050292E-01
          0                 3           1             4    7     1       0.5530166787E-04       4    7    1         0.2971594879E-02      0.7004235565E-02

    ------------------------------------------------
       NWT REQUIRED            3 OUTER ITERATIONS 
       AND A TOTAL OF          5 INNER ITERATIONS.
    ------------------------------------------------

 NO OUTPUT CONTROL FOR STRESS PERIOD   24   TIME STEP    8
 
 SOLVING FOR HEAD 
                                                   Max.-Head-Change                         Max.-Flux-Residual
  Residual-Control   Outer-Iter.   Inner-Iter.     Column Row Layer    Maximum-Head-Change  Column Row Layer    Maximum-Flux-Residual          L2-NORM 
          0                 1           2             4    7     1       0.6167520501E-02       4    7    1         0.3254062843E+00      0.7672478036E+00
          0                 2           2             4    7     1      -0.6111461027E-03       4    7    1        -0.3254068673E-01      0.7668385795E-01
          0                 3           1             4    7     1       0.5450357769E-04       4    7    1         0.2928661587E-02      0.6898114338E-02

    ------------------------------------------------
       NWT REQUIRED            3 OUTER ITERATIONS 
       AND A TOTAL OF          5 INNER ITERATIONS.
    ------------------------------------------------

 NO OUTPUT CONTROL FOR STRESS PERIOD   24   TIME STEP    9
 
 SOLVING FOR HEAD 
                                                   Max.-Head-Change                         Max.-Flux-Residual
  Residual-Control   Outer-Iter.   Inner-Iter.     Column Row Layer    Maximum-Head-Change  Column Row Layer    Maximum-Flux-Residual          L2-NORM 
          0                 1           2             4    7     1       0.6078538482E-02       4    7    1         0.3207054140E+00      0.7557439187E+00
          0                 2           2             4    7     1      -0.6023287713E-03       4    7    1        -0.3207059822E-01      0.7553549968E-01
          0                 3           1             4    7     1       0.5371722604E-04       4    7    1         0.2886353651E-02      0.6794624143E-02

    ------------------------------------------------
       NWT REQUIRED            3 OUTER ITERATIONS 
       AND A TOTAL OF          5 INNER ITERATIONS.
    ------------------------------------------------

 NO OUTPUT CONTROL FOR STRESS PERIOD   24   TIME STEP   10
 
 SOLVING FOR HEAD 
                                                   Max.-Head-Change                         Max.-Flux-Residual
  Residual-Control   Outer-Iter.   Inner-Iter.     Column Row Layer    Maximum-Head-Change  Column Row Layer    Maximum-Flux-Residual          L2-NORM 
          0                 1           2             4    7     1       0.5990872784E-02       4    7    1         0.3160734634E+00      0.7446145403E+00
          0                 2           2             4    7     1      -0.5936418748E-03       4    7    1        -0.3160740169E-01      0.7442678018E-01
          0                 3           1             4    7     1       0.5294250584E-04       4    7    1         0.2844665958E-02      0.6695196951E-02

    ------------------------------------------------
       NWT REQUIRED            3 OUTER ITERATIONS 
       AND A TOTAL OF          5 INNER ITERATIONS.
    ------------------------------------------------

 NO OUTPUT CONTROL FOR STRESS PERIOD   24   TIME STEP   11
 
 SOLVING FOR HEAD 
                                                   Max.-Head-Change                         Max.-Flux-Residual
  Residual-Control   Outer-Iter.   Inner-Iter.     Column Row Layer    Maximum-Head-Change  Column Row Layer    Maximum-Flux-Residual          L2-NORM 
          0                 1           2             4    7     1       0.5904774411E-02       4    7    1         0.3115246239E+00      0.7338316503E+00
          0                 2           2             4    7     1      -0.5851102876E-03       4    7    1        -0.3115251635E-01      0.7335087436E-01
          0                 3           1             4    7     1       0.5218163770E-04       4    7    1         0.2803726295E-02      0.6598542433E-02

    ------------------------------------------------
       NWT REQUIRED            3 OUTER ITERATIONS 
       AND A TOTAL OF          5 INNER ITERATIONS.
    ------------------------------------------------

 NO OUTPUT CONTROL FOR STRESS PERIOD   24   TIME STEP   12
 
 SOLVING FOR HEAD 
                                                   Max.-Head-Change                         Max.-Flux-Residual
  Residual-Control   Outer-Iter.   Inner-Iter.     Column Row Layer    Maximum-Head-Change  Column Row Layer    Maximum-Flux-Residual          L2-NORM 
          0                 1           2             4    7     1       0.5819946713E-02       4    7    1         0.3070423010E+00      0.7233889994E+00
          0                 2           2             4    7     1      -0.5767046124E-03       4    7    1        -0.3070428266E-01      0.7230932951E-01
          0                 3           1             4    7     1       0.5143199776E-04       4    7    1         0.2763385269E-02      0.6505082302E-02

    ------------------------------------------------
       NWT REQUIRED            3 OUTER ITERATIONS 
       AND A TOTAL OF          5 INNER ITERATIONS.
    ------------------------------------------------

 NO OUTPUT CONTROL FOR STRESS PERIOD   24   TIME STEP   13
 
 SOLVING FOR HEAD 
                                                   Max.-Head-Change                         Max.-Flux-Residual
  Residual-Control   Outer-Iter.   Inner-Iter.     Column Row Layer    Maximum-Head-Change  Column Row Layer    Maximum-Flux-Residual          L2-NORM 
          0                 1           2             4    7     1       0.5736381328E-02       4    7    1         0.3026259116E+00      0.7132513069E+00
          0                 2           2             4    7     1      -0.5684240217E-03       4    7    1        -0.3026264236E-01      0.7129775168E-01
          0                 3           1             4    7     1       0.5069351358E-04       4    7    1         0.2723637649E-02      0.6414276795E-02

    ------------------------------------------------
       NWT REQUIRED            3 OUTER ITERATIONS 
       AND A TOTAL OF          5 INNER ITERATIONS.
    ------------------------------------------------

 NO OUTPUT CONTROL FOR STRESS PERIOD   24   TIME STEP   14
 
 SOLVING FOR HEAD 
                                                   Max.-Head-Change                         Max.-Flux-Residual
  Residual-Control   Outer-Iter.   Inner-Iter.     Column Row Layer    Maximum-Head-Change  Column Row Layer    Maximum-Flux-Residual          L2-NORM 
          0                 1           2             4    7     1       0.5654334530E-02       4    7    1         0.2982898316E+00      0.7034169037E+00
          0                 2           2             4    7     1      -0.5602939101E-03       4    7    1        -0.2982903304E-01      0.7031637772E-01
          0                 3           1             4    7     1       0.4996844972E-04       4    7    1         0.2684612829E-02      0.6326037963E-02

    ------------------------------------------------
       NWT REQUIRED            3 OUTER ITERATIONS 
       AND A TOTAL OF          5 INNER ITERATIONS.
    ------------------------------------------------

 NO OUTPUT CONTROL FOR STRESS PERIOD   24   TIME STEP   15
 
 SOLVING FOR HEAD 
                                                   Max.-Head-Change                         Max.-Flux-Residual
  Residual-Control   Outer-Iter.   Inner-Iter.     Column Row Layer    Maximum-Head-Change  Column Row Layer    Maximum-Flux-Residual          L2-NORM 
          0                 1           2             4    7     1       0.5573509283E-02       4    7    1         0.2940177388E+00      0.6938595096E+00
          0                 2           2             4    7     1      -0.5522848430E-03       4    7    1        -0.2940182246E-01      0.6936243214E-01
          0                 3           1             4    7     1       0.4925418035E-04       4    7    1         0.2646163870E-02      0.6240453342E-02

    ------------------------------------------------
       NWT REQUIRED            3 OUTER ITERATIONS 
       AND A TOTAL OF          5 INNER ITERATIONS.
    ------------------------------------------------

 NO OUTPUT CONTROL FOR STRESS PERIOD   24   TIME STEP   16
 
 SOLVING FOR HEAD 
                                                   Max.-Head-Change                         Max.-Flux-Residual
  Residual-Control   Outer-Iter.   Inner-Iter.     Column Row Layer    Maximum-Head-Change  Column Row Layer    Maximum-Flux-Residual          L2-NORM 
          0                 1           2             4    7     1       0.5494160718E-02       4    7    1         0.2898238405E+00      0.6845716551E+00
          0                 2           2             4    7     1      -0.5444221016E-03       4    7    1        -0.2898243134E-01      0.6843558612E-01
          0                 3           1             4    7     1       0.4855296070E-04       4    7    1         0.2608418673E-02      0.6157132312E-02

    ------------------------------------------------
       NWT REQUIRED            3 OUTER ITERATIONS 
       AND A TOTAL OF          5 INNER ITERATIONS.
    ------------------------------------------------

 NO OUTPUT CONTROL FOR STRESS PERIOD   24   TIME STEP   17
 
 SOLVING FOR HEAD 
                                                   Max.-Head-Change                         Max.-Flux-Residual
  Residual-Control   Outer-Iter.   Inner-Iter.     Column Row Layer    Maximum-Head-Change  Column Row Layer    Maximum-Flux-Residual          L2-NORM 
          0                 1           2             4    7     1       0.5415724477E-02       4    7    1         0.2856769445E+00      0.6755440078E+00
          0                 2           2             4    7     1      -0.5366497649E-03       4    7    1        -0.2856774052E-01      0.6753418393E-01
          0                 3           1             4    7     1       0.4785980414E-04       4    7    1         0.2571096518E-02      0.6076202621E-02

    ------------------------------------------------
       NWT REQUIRED            3 OUTER ITERATIONS 
       AND A TOTAL OF          5 INNER ITERATIONS.
    ------------------------------------------------

 NO OUTPUT CONTROL FOR STRESS PERIOD   24   TIME STEP   18
 
 SOLVING FOR HEAD 
                                                   Max.-Head-Change                         Max.-Flux-Residual
  Residual-Control   Outer-Iter.   Inner-Iter.     Column Row Layer    Maximum-Head-Change  Column Row Layer    Maximum-Flux-Residual          L2-NORM 
          0                 1           2             4    7     1       0.5339016295E-02       4    7    1         0.2816218190E+00      0.6667630803E+00
          0                 2           2             4    7     1      -0.5290486626E-03       4    7    1        -0.2816222675E-01      0.6665794048E-01
          0                 3           1             4    7     1       0.4718191814E-04       4    7    1         0.2534600278E-02      0.5997565411E-02

    ------------------------------------------------
       NWT REQUIRED            3 OUTER ITERATIONS 
       AND A TOTAL OF          5 INNER ITERATIONS.
    ------------------------------------------------

 NO OUTPUT CONTROL FOR STRESS PERIOD   24   TIME STEP   19
 
 SOLVING FOR HEAD 
                                                   Max.-Head-Change                         Max.-Flux-Residual
  Residual-Control   Outer-Iter.   Inner-Iter.     Column Row Layer    Maximum-Head-Change  Column Row Layer    Maximum-Flux-Residual          L2-NORM 
          0                 1           2             4    7     1       0.5263448186E-02       4    7    1         0.2776267386E+00      0.6582085990E+00
          0                 2           2             4    7     1      -0.5215605324E-03       4    7    1        -0.2776271756E-01      0.6580364922E-01
          0                 3           1             4    7     1       0.4651410756E-04       4    7    1         0.2498644461E-02      0.5920759518E-02

    ------------------------------------------------
       NWT REQUIRED            3 OUTER ITERATIONS 
       AND A TOTAL OF          5 INNER ITERATIONS.
    ------------------------------------------------

 NO OUTPUT CONTROL FOR STRESS PERIOD   24   TIME STEP   20
 
 SOLVING FOR HEAD 
                                                   Max.-Head-Change                         Max.-Flux-Residual
  Residual-Control   Outer-Iter.   Inner-Iter.     Column Row Layer    Maximum-Head-Change  Column Row Layer    Maximum-Flux-Residual          L2-NORM 
          0                 1           2             4    7     1       0.5189012545E-02       4    7    1         0.2736908148E+00      0.6498799026E+00
          0                 2           2             4    7     1      -0.5141846193E-03       4    7    1        -0.2736912400E-01      0.6497190306E-01
          0                 3           1             4    7     1       0.4585630487E-04       4    7    1         0.2463221051E-02      0.5846010625E-02

    ------------------------------------------------
       NWT REQUIRED            3 OUTER ITERATIONS 
       AND A TOTAL OF          5 INNER ITERATIONS.
    ------------------------------------------------

 NO OUTPUT CONTROL FOR STRESS PERIOD   24   TIME STEP   21
 
 SOLVING FOR HEAD 
                                                   Max.-Head-Change                         Max.-Flux-Residual
  Residual-Control   Outer-Iter.   Inner-Iter.     Column Row Layer    Maximum-Head-Change  Column Row Layer    Maximum-Flux-Residual          L2-NORM 
          0                 1           2             4    7     1       0.5115968308E-02       4    7    1         0.2698284641E+00      0.6417651238E+00
          0                 2           2             4    7     1      -0.5069465827E-03       4    7    1        -0.2698288784E-01      0.6416174976E-01
          0                 3           1             4    7     1       0.4521079795E-04       4    7    1         0.2428459789E-02      0.5773165238E-02

    ------------------------------------------------
       NWT REQUIRED            3 OUTER ITERATIONS 
       AND A TOTAL OF          5 INNER ITERATIONS.
    ------------------------------------------------

 NO OUTPUT CONTROL FOR STRESS PERIOD   24   TIME STEP   22
 
 SOLVING FOR HEAD 
                                                   Max.-Head-Change                         Max.-Flux-Residual
  Residual-Control   Outer-Iter.   Inner-Iter.     Column Row Layer    Maximum-Head-Change  Column Row Layer    Maximum-Flux-Residual          L2-NORM 
          0                 1           2             4    7     1       0.5044012956E-02       4    7    1         0.2660235001E+00      0.6338500548E+00
          0                 2           2             4    7     1      -0.4998164446E-03       4    7    1        -0.2660239032E-01      0.6336846640E-01
          0                 3           1             4    7     1       0.4457491409E-04       4    7    1         0.2394215028E-02      0.5701533813E-02

    ------------------------------------------------
       NWT REQUIRED            3 OUTER ITERATIONS 
       AND A TOTAL OF          5 INNER ITERATIONS.
    ------------------------------------------------

 NO OUTPUT CONTROL FOR STRESS PERIOD   24   TIME STEP   23
 
 SOLVING FOR HEAD 
                                                   Max.-Head-Change                         Max.-Flux-Residual
  Residual-Control   Outer-Iter.   Inner-Iter.     Column Row Layer    Maximum-Head-Change  Column Row Layer    Maximum-Flux-Residual          L2-NORM 
          0                 1           2             4    7     1       0.4973145856E-02       4    7    1         0.2622750366E+00      0.6261370109E+00
          0                 2           2             4    7     1      -0.4927941427E-03       4    7    1        -0.2622754290E-01      0.6260096852E-01
          0                 3           1             4    7     1       0.4394864738E-04       4    7    1         0.2360478757E-02      0.5632949294E-02

    ------------------------------------------------
       NWT REQUIRED            3 OUTER ITERATIONS 
       AND A TOTAL OF          5 INNER ITERATIONS.
    ------------------------------------------------

 NO OUTPUT CONTROL FOR STRESS PERIOD   24   TIME STEP   24
 
 SOLVING FOR HEAD 
                                                   Max.-Head-Change                         Max.-Flux-Residual
  Residual-Control   Outer-Iter.   Inner-Iter.     Column Row Layer    Maximum-Head-Change  Column Row Layer    Maximum-Flux-Residual          L2-NORM 
          0                 1           2             4    7     1       0.4903617247E-02       4    7    1         0.2585978526E+00      0.6186116344E+00
          0                 2           2             4    7     1      -0.4859044737E-03       4    7    1        -0.2585982343E-01      0.6184925117E-01
          0                 3           1             4    7     1       0.4333420934E-04       4    7    1         0.2327384026E-02      0.5565349719E-02

    ------------------------------------------------
       NWT REQUIRED            3 OUTER ITERATIONS 
       AND A TOTAL OF          5 INNER ITERATIONS.
    ------------------------------------------------

 NO OUTPUT CONTROL FOR STRESS PERIOD   24   TIME STEP   25
 
 SOLVING FOR HEAD 
                                                   Max.-Head-Change                         Max.-Flux-Residual
  Residual-Control   Outer-Iter.   Inner-Iter.     Column Row Layer    Maximum-Head-Change  Column Row Layer    Maximum-Flux-Residual          L2-NORM 
          0                 1           2             4    7     1       0.4835400226E-02       4    7    1         0.2549901204E+00      0.6112587017E+00
          0                 2           2             4    7     1      -0.4791447721E-03       4    7    1        -0.2549904924E-01      0.6111479754E-01
          0                 3           1             4    7     1       0.4273136175E-04       4    7    1         0.2294914350E-02      0.5499292708E-02

    ------------------------------------------------
       NWT REQUIRED            3 OUTER ITERATIONS 
       AND A TOTAL OF          5 INNER ITERATIONS.
    ------------------------------------------------

 NO OUTPUT CONTROL FOR STRESS PERIOD   24   TIME STEP   26
 
 SOLVING FOR HEAD 
                                                   Max.-Head-Change                         Max.-Flux-Residual
  Residual-Control   Outer-Iter.   Inner-Iter.     Column Row Layer    Maximum-Head-Change  Column Row Layer    Maximum-Flux-Residual          L2-NORM 
          0                 1           2             4    7     1       0.4768194688E-02       4    7    1         0.2514356328E+00      0.6040763288E+00
          0                 2           2             4    7     1      -0.4724852991E-03       4    7    1        -0.2514359949E-01      0.6039721518E-01
          0                 3           1             4    7     1       0.4213745275E-04       4    7    1         0.2262923880E-02      0.5434818794E-02

    ------------------------------------------------
       NWT REQUIRED            3 OUTER ITERATIONS 
       AND A TOTAL OF          5 INNER ITERATIONS.
    ------------------------------------------------

 NO OUTPUT CONTROL FOR STRESS PERIOD   24   TIME STEP   27
 
 SOLVING FOR HEAD 
                                                   Max.-Head-Change                         Max.-Flux-Residual
  Residual-Control   Outer-Iter.   Inner-Iter.     Column Row Layer    Maximum-Head-Change  Column Row Layer    Maximum-Flux-Residual          L2-NORM 
          0                 1           2             4    7     1       0.4701993064E-02       4    7    1         0.2479336294E+00      0.5970599939E+00
          0                 2           2             4    7     1      -0.4659253053E-03       4    7    1        -0.2479339817E-01      0.5969643887E-01
          0                 3           1             4    7     1       0.4155241557E-04       4    7    1         0.2231405762E-02      0.5371875746E-02

    ------------------------------------------------
       NWT REQUIRED            3 OUTER ITERATIONS 
       AND A TOTAL OF          5 INNER ITERATIONS.
    ------------------------------------------------

 NO OUTPUT CONTROL FOR STRESS PERIOD   24   TIME STEP   28
 
 SOLVING FOR HEAD 
                                                   Max.-Head-Change                         Max.-Flux-Residual
  Residual-Control   Outer-Iter.   Inner-Iter.     Column Row Layer    Maximum-Head-Change  Column Row Layer    Maximum-Flux-Residual          L2-NORM 
          0                 1           2             4    7     1       0.4637089808E-02       4    7    1         0.2444985297E+00      0.6016276534E+00
          0                 2           2             4    7     1      -0.4599676984E-03       4    7    1        -0.2448647251E-01      0.6016694731E-01
          0                 3           1             4    7     1       0.4102109965E-04       4    7    1         0.2203782378E-02      0.5414183084E-02

    ------------------------------------------------
       NWT REQUIRED            3 OUTER ITERATIONS 
       AND A TOTAL OF          5 INNER ITERATIONS.
    ------------------------------------------------

 NO OUTPUT CONTROL FOR STRESS PERIOD   24   TIME STEP   29
 
 SOLVING FOR HEAD 
                                                   Max.-Head-Change                         Max.-Flux-Residual
  Residual-Control   Outer-Iter.   Inner-Iter.     Column Row Layer    Maximum-Head-Change  Column Row Layer    Maximum-Flux-Residual          L2-NORM 
          0                 1           2             4    7     1       0.4571230927E-02       4    7    1         0.2411059095E+00      0.6057081578E+00
          0                 2           2             4    7     1      -0.4529680419E-03       4    7    1        -0.2411063142E-01      0.6056127163E-01
          0                 3           1             4    7     1       0.4039685290E-04       4    7    1         0.2169956704E-02      0.5449594159E-02

    ------------------------------------------------
       NWT REQUIRED            3 OUTER ITERATIONS 
       AND A TOTAL OF          5 INNER ITERATIONS.
    ------------------------------------------------

 NO OUTPUT CONTROL FOR STRESS PERIOD   24   TIME STEP   30



 STREAM LISTING     PERIOD     24   STEP       30

 LAYER ROW COL. STREAM  RCH.  FLOW INTO     FLOW TO   FLOW OUT OF   OVRLND.     DIRECT     STREAM       STREAM     STREAM     STREAM   STREAMBED  STREAMBED
                SEG.NO.  NO.  STRM. RCH.    AQUIFER    STRM. RCH.    RUNOFF     PRECIP       ET          HEAD       DEPTH      WIDTH   CONDCTNC.   GRADIENT

   1    1    1     1     1    3.5000E+00  8.3255E-02   3.4167E+00  0.000E+00  0.000E+00  0.000E+00  1.09371E+03  6.654E-01  5.047E+00  2.271E-02  1.222E+00
   1    2    2     1     2    3.4167E+00  1.2792E-01   3.2888E+00  0.000E+00  0.000E+00  0.000E+00  1.08872E+03  6.583E-01  4.995E+00  3.497E-02  1.219E+00
   1    3    3     1     3    3.2888E+00  1.0809E-01   3.1807E+00  0.000E+00  0.000E+00  0.000E+00  1.08307E+03  6.502E-01  4.935E+00  2.961E-02  1.217E+00
   1    3    4     1     4    3.1807E+00  9.8702E-02   3.0820E+00  0.000E+00  0.000E+00  0.000E+00  1.07805E+03  6.428E-01  4.882E+00  2.709E-02  1.214E+00
   1    4    5     2     1    1.0820E+00  2.4731E-01   8.3473E-01  0.000E+00  0.000E+00  0.000E+00  1.07210E+03  1.706E-01  1.200E+01  7.800E-02  1.057E+00
   1    5    6     2     2    8.3473E-01  1.8877E-01   6.4596E-01  0.000E+00  0.000E+00  0.000E+00  1.06666E+03  1.462E-01  1.200E+01  6.000E-02  1.049E+00
   1    6    6     2     3    6.4596E-01  1.8736E-01   4.5860E-01  0.000E+00  0.000E+00  0.000E+00  1.06192E+03  1.226E-01  1.200E+01  6.000E-02  1.041E+00
   1    7    6     2     4    4.5860E-01  1.8574E-01   2.7286E-01  0.000E+00  0.000E+00  0.000E+00  1.05717E+03  9.573E-02  1.200E+01  6.000E-02  1.032E+00
   1    8    6     2     5    2.7286E-01  1.8377E-01   8.9092E-02  0.000E+00  0.000E+00  0.000E+00  1.05242E+03  6.276E-02  1.200E+01  6.000E-02  1.021E+00
   1    3    5     3     1    2.0000E+00  2.8252E-01   1.7175E+00  0.000E+00  0.000E+00  0.000E+00  1.07555E+03  1.909E+00  9.636E+00  7.227E-02  1.955E+00
   1    3    6     3     2    1.7175E+00  2.4905E-01   1.4684E+00  0.000E+00  0.000E+00  0.000E+00  1.07264E+03  1.727E+00  8.909E+00  6.682E-02  1.864E+00
   1    3    7     3     3    1.4684E+00  1.9718E-01   1.2712E+00  0.000E+00  0.000E+00  0.000E+00  1.06987E+03  1.555E+00  8.218E+00  5.547E-02  1.777E+00
   1    4    8     3     4    1.2712E+00  2.2567E-01   1.0456E+00  0.000E+00  0.000E+00  0.000E+00  1.06682E+03  1.364E+00  7.455E+00  6.709E-02  1.682E+00
   1    5    8     3     5    1.0456E+00  1.5790E-01   8.8768E-01  0.000E+00  0.000E+00  0.000E+00  1.06362E+03  1.164E+00  6.655E+00  4.991E-02  1.582E+00
   1    6    8     3     6    8.8768E-01  5.5980E-02   8.3170E-01  0.000E+00  0.000E+00  0.000E+00  1.06158E+03  1.036E+00  6.145E+00  1.844E-02  1.518E+00
   1    5   10     4     1    1.0000E+01  9.0919E-02   9.9091E+00  0.000E+00  0.000E+00  0.000E+00  1.07836E+03  6.368E-01  1.000E+01  2.500E-02  1.212E+00
   1    5    9     4     2    9.9091E+00  1.8158E-01   9.7275E+00  0.000E+00  0.000E+00  0.000E+00  1.07154E+03  6.315E-01  1.000E+01  5.000E-02  1.211E+00
   1    6    8     4     3    9.7275E+00  1.2689E-01   9.6006E+00  0.000E+00  0.000E+00  0.000E+00  1.06381E+03  6.256E-01  1.000E+01  3.500E-02  1.209E+00
   1    6    8     5     1    1.0432E+01  2.2686E-01   1.0205E+01  0.000E+00  0.000E+00  0.000E+00  1.05868E+03  6.790E-01  1.542E+01  6.166E-02  1.226E+00
   1    7    7     5     2    1.0205E+01  2.7894E-01   9.9265E+00  0.000E+00  0.000E+00  0.000E+00  1.05417E+03  6.732E-01  1.519E+01  7.594E-02  1.224E+00
   1    8    7     5     3    9.9265E+00  1.9221E-01   9.7343E+00  0.000E+00  0.000E+00  0.000E+00  1.04992E+03  6.676E-01  1.497E+01  5.241E-02  1.223E+00
   1    8    6     5     4    9.7343E+00  1.3577E-01   9.5985E+00  0.000E+00  0.000E+00  0.000E+00  1.04691E+03  6.637E-01  1.482E+01  3.706E-02  1.221E+00
   1    9    6     6     1    9.6876E+00  2.2120E-01   9.4664E+00  0.000E+00  0.000E+00  0.000E+00  1.04341E+03  6.866E-01  1.200E+01  6.000E-02  1.229E+00
   1   10    7     6     2    9.4664E+00  2.2062E-01   9.2458E+00  0.000E+00  0.000E+00  0.000E+00  1.03886E+03  6.771E-01  1.200E+01  6.000E-02  1.226E+00
   1   11    7     6     3    9.2458E+00  2.2005E-01   9.0258E+00  0.000E+00  0.000E+00  0.000E+00  1.03430E+03  6.674E-01  1.200E+01  6.000E-02  1.222E+00
   1   12    7     6     4    9.0258E+00  2.1947E-01   8.8063E+00  0.000E+00  0.000E+00  0.000E+00  1.02975E+03  6.578E-01  1.200E+01  6.000E-02  1.219E+00
   1   13    7     6     5    8.8063E+00 -9.5787E-02   8.9021E+00  0.000E+00  0.000E+00  0.000E+00  1.02656E+03  6.550E-01  1.200E+01  2.400E-01 -1.330E-01
   1   14    9     7     1    1.5000E+02  1.3429E+00   1.4866E+02  0.000E+00  0.000E+00  0.000E+00  1.03987E+03  2.288E+00  5.529E+01  5.593E-01  8.004E-01
   1   13    8     7     2    1.4866E+02  1.8603E+00   1.4680E+02  0.000E+00  0.000E+00  0.000E+00  1.03478E+03  2.279E+00  5.526E+01  6.148E-01  1.009E+00
   1   13    7     7     3    1.4680E+02  1.5224E+00   1.4527E+02  0.000E+00  0.000E+00  0.000E+00  1.02969E+03  2.270E+00  5.522E+01  5.584E-01  9.088E-01
   1   13    6     8     1    1.5418E+02  8.9117E-01   1.5329E+02  0.000E+00  0.000E+00  0.000E+00  1.02472E+03  2.843E+00  4.122E+01  4.201E-01  7.072E-01
   1   13    5     8     2    1.5329E+02  1.6477E-01   1.5312E+02  0.000E+00  0.000E+00  0.000E+00  1.01846E+03  2.839E+00  4.117E+01  4.195E-01  1.309E-01
   1   13    4     8     3    1.5312E+02 -2.4815E+00   1.5560E+02  0.000E+00  0.000E+00  0.000E+00  1.01222E+03  2.847E+00  4.129E+01  4.207E+00 -1.966E-01
   1   13    3     8     4    1.5560E+02 -3.6544E+00   1.5926E+02  0.000E+00  0.000E+00  0.000E+00  1.00599E+03  2.868E+00  4.159E+01  4.238E+00 -2.874E-01
   1   13    2     8     5    1.5926E+02 -2.5666E+00   1.6182E+02  0.000E+00  0.000E+00  0.000E+00  9.99764E+02  2.889E+00  4.190E+01  4.270E+00 -2.004E-01
   1   13    1     8     6    1.6182E+02 -1.9428E+00   1.6377E+02  0.000E+00  0.000E+00  0.000E+00  9.94780E+02  2.905E+00  4.212E+01  2.575E+00 -2.515E-01
   1    6    8     9     1    0.0000E+00  0.0000E+00   0.0000E+00  0.000E+00  0.000E+00  0.000E+00  1.07850E+03  0.000E+00  4.000E+00  0.000E+00  1.000E+00





UNSATURATED ZONE PACKAGE VOLUMETRIC BUDGET FOR  TIME STEP    30 STRESS PERIOD   24
  ------------------------------------------------------------------------------



     CUMULATIVE VOLUMES      L**3       RATES FOR THIS TIME STEP      L**3/T
     ------------------                 ------------------------

           IN:                                      IN:
           ---                                      ---
        INFILTRATION =   127573932.4790          INFILTRATION =       0.0000E+00

          OUT:                                     OUT:
          ----                                     ----
              UZF ET =   100526344.4961                UZF ET =           0.0141
        UZF RECHARGE =       73224.0000          UZF RECHARGE =       0.0000E+00

            IN - OUT =    26974363.9829              IN - OUT =          -0.0141

          STORAGE:                                 STORAGE:
          --------                                 --------
      STORAGE CHANGE =    26974222.1805        STORAGE CHANGE =          -0.0141

 PERCENT DISCREPANCY IS DIFFERENCE BETWEEN IN-OUT MINUS CHANGE IN STORAGE
 DIVIDED BY THE AVERAGE OF IN AND OUT TIMES 100

 PERCENT DISCREPANCY =           0.00     PERCENT DISCREPANCY =           0.00






1
  VOLUMETRIC BUDGET FOR ENTIRE MODEL AT END OF TIME STEP   30, STRESS PERIOD  24
  ------------------------------------------------------------------------------

     CUMULATIVE VOLUMES      L**3       RATES FOR THIS TIME STEP      L**3/T
     ------------------                 ------------------------

           IN:                                      IN:
           ---                                      ---
    AWU WELLS            =   127500664.0000      AWU WELLS            =           0.0000
    DIVERSION SEGMENTS   =           0.0000      DIVERSION SEGMENTS   =           0.0000
    GW IRRIGATION        =           0.0000      GW IRRIGATION        =           0.0000
    SW IRRIGATION        =           0.0000      SW IRRIGATION        =           0.0000
    EFFICIENCY FACTOR GW =           0.0000      EFFICIENCY FACTOR GW =           0.0000
    EFFICIENCY FACTOR SW =           0.0000      EFFICIENCY FACTOR SW =           0.0000

                TOTAL IN =   127500664.0000                  TOTAL IN =           0.0000

          OUT:                                     OUT:
          ----                                     ----
    AWU WELLS            =           0.0000      AWU WELLS            =           0.0000
    DIVERSION SEGMENTS   =           0.0000      DIVERSION SEGMENTS   =           0.0000
    GW IRRIGATION        =   127500664.0000      GW IRRIGATION        =           0.0000
    SW IRRIGATION        =           0.0000      SW IRRIGATION        =           0.0000
    EFFICIENCY FACTOR GW =           0.0000      EFFICIENCY FACTOR GW =           0.0000
    EFFICIENCY FACTOR SW =           0.0000      EFFICIENCY FACTOR SW =           0.0000

               TOTAL OUT =   127500664.0000                 TOTAL OUT =           0.0000

                IN - OUT =           0.0000                  IN - OUT =           0.0000

     PERCENT DISCREPANCY =           0.00         PERCENT DISCREPANCY =           0.00



1
  VOLUMETRIC BUDGET FOR ENTIRE MODEL AT END OF TIME STEP   30, STRESS PERIOD  24
  ------------------------------------------------------------------------------

     CUMULATIVE VOLUMES      L**3       RATES FOR THIS TIME STEP      L**3/T
     ------------------                 ------------------------

           IN:                                      IN:
           ---                                      ---
             STORAGE     =   238471168.0000               STORAGE     =           2.2165
       CONSTANT HEAD     =           0.0000         CONSTANT HEAD     =           0.0000
     HEAD DEP BOUNDS     =    17311214.0000       HEAD DEP BOUNDS     =           0.2862
      STREAM LEAKAGE     =   708313280.0000        STREAM LEAKAGE     =          10.4753
        UZF RECHARGE     =       73223.9531          UZF RECHARGE     =           0.0000
               GW ET     =           0.0000                 GW ET     =           0.0000
     SURFACE LEAKAGE     =           0.0000       SURFACE LEAKAGE     =           0.0000
    AWU WELLS            =           0.0000      AWU WELLS            =           0.0000

                TOTAL IN =   964168896.0000                  TOTAL IN =          12.9780

          OUT:                                     OUT:
          ----                                     ----
             STORAGE     =   132170824.0000               STORAGE     =           1.9405
       CONSTANT HEAD     =           0.0000         CONSTANT HEAD     =           0.0000
     HEAD DEP BOUNDS     =    17296714.0000       HEAD DEP BOUNDS     =           0.2863
      STREAM LEAKAGE     =   579193024.0000        STREAM LEAKAGE     =          10.7412
        UZF RECHARGE     =           0.0000          UZF RECHARGE     =           0.0000
               GW ET     =   107994640.0000                 GW ET     =       9.8493E-03
     SURFACE LEAKAGE     =           0.0000       SURFACE LEAKAGE     =           0.0000
    AWU WELLS            =   127500664.0000      AWU WELLS            =           0.0000

               TOTAL OUT =   964155840.0000                 TOTAL OUT =          12.9778

                IN - OUT =       13056.0000                  IN - OUT =       2.0218E-04

     PERCENT DISCREPANCY =           0.00         PERCENT DISCREPANCY =           0.00






         TIME SUMMARY AT END OF TIME STEP   30 IN STRESS PERIOD   24
                    SECONDS     MINUTES      HOURS       DAYS        YEARS
                    -----------------------------------------------------------
   TIME STEP LENGTH  87600.      1460.0      24.333      1.0139     2.77588E-03
 STRESS PERIOD TIME 2.62800E+06  43800.      730.00      30.417     8.32763E-02
         TOTAL TIME 6.05304E+07 1.00884E+06  16814.      700.58      1.9181    
1
1
                            STRESS PERIOD NO.   25, LENGTH =   2628000.    
                            -----------------------------------------------

                              NUMBER OF TIME STEPS =    30

                               MULTIPLIER FOR DELT =     1.000

                            INITIAL TIME STEP SIZE =   87600.00    

 REUSING NON-PARAMETER GHB CELLS FROM LAST STRESS PERIOD

      2 GHB CELLS

 REUSING STREAM SEGMENT DATA FROM LAST STRESS PERIOD



            AREAL INFILTRATION RATE
 READING ON UNIT   19 WITH FORMAT: (10F4.0)            

            1           2           3           4           5           6           7           8           9          10
 ........................................................................................................................
   1    0.000       0.000       0.000       0.000       0.000       0.000       0.000       0.000       0.000       0.000    
   2    0.000       0.000       0.000       0.000       0.000       0.000       0.000       0.000       0.000       0.000    
   3    0.000       0.000       0.000       0.000       0.000       0.000       0.000       0.000       0.000       0.000    
   4    0.000       0.000       0.000       0.000       0.000       0.000       0.000       0.000       0.000       0.000    
   5    0.000       0.000       0.000       0.000       0.000       0.000       0.000       0.000       0.000       0.000    
   6    0.000       0.000       0.000       0.000       0.000       0.000       0.000       0.000       0.000       0.000    
   7    0.000       0.000       0.000       0.000       0.000       0.000       0.000       0.000       0.000       0.000    
   8    0.000       0.000       0.000       0.000       0.000       0.000       0.000       0.000       0.000       0.000    
   9    0.000       0.000       0.000       0.000       0.000       0.000       0.000       0.000       0.000       0.000    
  10    0.000       0.000       0.000       0.000       0.000       0.000       0.000       0.000       0.000       0.000    
  11    0.000       0.000       0.000       0.000       0.000       0.000       0.000       0.000       0.000       0.000    
  12    0.000       0.000       0.000       0.000       0.000       0.000       0.000       0.000       0.000       0.000    
  13    0.000       0.000       0.000       0.000       0.000       0.000       0.000       0.000       0.000       0.000    
  14    0.000       0.000       0.000       0.000       0.000       0.000       0.000       0.000       0.000       0.000    
  15    0.000       0.000       0.000       0.000       0.000       0.000       0.000       0.000       0.000       0.000    

                  ET RATE =  1.000000E-10

 USING ET EXTINCTION DEPTH FROM PREVIOUS STRESS PERIOD. CURRENT PERIOD IS:      25

 USING EXTINCTION WATER CONTENT FROM PREVIOUS STRESS PERIOD. CURRENT PERIOD IS:      25

 PROCESSING AWU STRESS PERIOD DATA

 READING AWU STRESS PERIOD DATA

 READING IRRIGATION WELL

 END PROCESSING AWU STRESS PERIOD DATA OPTIONS
 
 SOLVING FOR HEAD 
                                                   Max.-Head-Change                         Max.-Flux-Residual
  Residual-Control   Outer-Iter.   Inner-Iter.     Column Row Layer    Maximum-Head-Change  Column Row Layer    Maximum-Flux-Residual          L2-NORM 
          0                 1           2             4    7     1       0.4507024436E-02       4    7    1         0.2376986024E+00      0.5978340829E+00
          0                 2           2             4    7     1      -0.4466057424E-03       4    7    1        -0.2376989940E-01      0.5977462709E-01
          0                 3           1             4    7     1       0.3982944684E-04       4    7    1         0.2139290822E-02      0.5378857198E-02

    ------------------------------------------------
       NWT REQUIRED            3 OUTER ITERATIONS 
       AND A TOTAL OF          5 INNER ITERATIONS.
    ------------------------------------------------

 NO OUTPUT CONTROL FOR STRESS PERIOD   25   TIME STEP    1
 
 SOLVING FOR HEAD 
                                                   Max.-Head-Change                         Max.-Flux-Residual
  Residual-Control   Outer-Iter.   Inner-Iter.     Column Row Layer    Maximum-Head-Change  Column Row Layer    Maximum-Flux-Residual          L2-NORM 
          0                 1           2             4    7     1       0.4444252693E-02       4    7    1         0.2343670350E+00      0.5902705848E+00
          0                 2           2             4    7     1      -0.4403856139E-03       4    7    1        -0.2343674137E-01      0.5901888450E-01
          0                 3           1             4    7     1       0.3927471968E-04       4    7    1         0.2109306607E-02      0.5310997134E-02

    ------------------------------------------------
       NWT REQUIRED            3 OUTER ITERATIONS 
       AND A TOTAL OF          5 INNER ITERATIONS.
    ------------------------------------------------

 NO OUTPUT CONTROL FOR STRESS PERIOD   25   TIME STEP    2
 
 SOLVING FOR HEAD 
                                                   Max.-Head-Change                         Max.-Flux-Residual
  Residual-Control   Outer-Iter.   Inner-Iter.     Column Row Layer    Maximum-Head-Change  Column Row Layer    Maximum-Flux-Residual          L2-NORM 
          0                 1           2             4    7     1       0.4382619176E-02       4    7    1         0.2310951020E+00      0.5830013904E+00
          0                 2           2             4    7     1      -0.4342782738E-03       4    7    1        -0.2310954681E-01      0.5829257107E-01
          0                 3           1             4    7     1       0.3873005148E-04       4    7    1         0.2079859110E-02      0.5245624651E-02

    ------------------------------------------------
       NWT REQUIRED            3 OUTER ITERATIONS 
       AND A TOTAL OF          5 INNER ITERATIONS.
    ------------------------------------------------

 NO OUTPUT CONTROL FOR STRESS PERIOD   25   TIME STEP    3
 
 SOLVING FOR HEAD 
                                                   Max.-Head-Change                         Max.-Flux-Residual
  Residual-Control   Outer-Iter.   Inner-Iter.     Column Row Layer    Maximum-Head-Change  Column Row Layer    Maximum-Flux-Residual          L2-NORM 
          0                 1           2             4    7     1       0.4322113272E-02       4    7    1         0.2278822299E+00      0.5760009007E+00
          0                 2           2             4    7     1      -0.4282826715E-03       4    7    1        -0.2278825843E-01      0.5759301618E-01
          0                 3           1             4    7     1       0.3819534893E-04       4    7    1         0.2050943177E-02      0.5182675683E-02

    ------------------------------------------------
       NWT REQUIRED            3 OUTER ITERATIONS 
       AND A TOTAL OF          5 INNER ITERATIONS.
    ------------------------------------------------

 NO OUTPUT CONTROL FOR STRESS PERIOD   25   TIME STEP    4
 
 SOLVING FOR HEAD 
                                                   Max.-Head-Change                         Max.-Flux-Residual
  Residual-Control   Outer-Iter.   Inner-Iter.     Column Row Layer    Maximum-Head-Change  Column Row Layer    Maximum-Flux-Residual          L2-NORM 
          0                 1           2             4    7     1       0.4263263604E-02       4    7    1         0.2247574937E+00      0.5692528823E+00
          0                 2           2             4    7     1      -0.4224511867E-03       4    7    1        -0.2247578364E-01      0.5691873136E-01
          0                 3           1             4    7     1       0.3767528209E-04       4    7    1         0.2022820454E-02      0.5122081499E-02

    ------------------------------------------------
       NWT REQUIRED            3 OUTER ITERATIONS 
       AND A TOTAL OF          5 INNER ITERATIONS.
    ------------------------------------------------

 NO OUTPUT CONTROL FOR STRESS PERIOD   25   TIME STEP    5
 
 SOLVING FOR HEAD 
                                                   Max.-Head-Change                         Max.-Flux-Residual
  Residual-Control   Outer-Iter.   Inner-Iter.     Column Row Layer    Maximum-Head-Change  Column Row Layer    Maximum-Flux-Residual          L2-NORM 
          0                 1           2             4    7     1       0.4205201781E-02       4    7    1         0.2216742580E+00      0.5627148360E+00
          0                 2           2             4    7     1      -0.4166977712E-03       4    7    1        -0.2216745898E-01      0.5626535731E-01
          0                 3           1             4    7     1       0.3716217738E-04       4    7    1         0.1995071233E-02      0.5063253793E-02

    ------------------------------------------------
       NWT REQUIRED            3 OUTER ITERATIONS 
       AND A TOTAL OF          5 INNER ITERATIONS.
    ------------------------------------------------

 NO OUTPUT CONTROL FOR STRESS PERIOD   25   TIME STEP    6
 
 SOLVING FOR HEAD 
                                                   Max.-Head-Change                         Max.-Flux-Residual
  Residual-Control   Outer-Iter.   Inner-Iter.     Column Row Layer    Maximum-Head-Change  Column Row Layer    Maximum-Flux-Residual          L2-NORM 
          0                 1           2             4    7     1       0.4148741571E-02       4    7    1         0.2186763414E+00      0.5563993398E+00
          0                 2           2             4    7     1      -0.4111030616E-03       4    7    1        -0.2186766623E-01      0.5563424608E-01
          0                 3           1             4    7     1       0.3666322729E-04       4    7    1         0.1968089904E-02      0.5006536693E-02

    ------------------------------------------------
       NWT REQUIRED            3 OUTER ITERATIONS 
       AND A TOTAL OF          5 INNER ITERATIONS.
    ------------------------------------------------

 NO OUTPUT CONTROL FOR STRESS PERIOD   25   TIME STEP    7
 
 SOLVING FOR HEAD 
                                                   Max.-Head-Change                         Max.-Flux-Residual
  Residual-Control   Outer-Iter.   Inner-Iter.     Column Row Layer    Maximum-Head-Change  Column Row Layer    Maximum-Flux-Residual          L2-NORM 
          0                 1           2             4    7     1       0.4093288464E-02       4    7    1         0.2157319033E+00      0.5502570865E+00
          0                 2           2             4    7     1      -0.4056081474E-03       4    7    1        -0.2157322141E-01      0.5502039378E-01
          0                 3           1             4    7     1       0.3617317675E-04       4    7    1         0.1941589862E-02      0.4951354011E-02

    ------------------------------------------------
       NWT REQUIRED            3 OUTER ITERATIONS 
       AND A TOTAL OF          5 INNER ITERATIONS.
    ------------------------------------------------

 NO OUTPUT CONTROL FOR STRESS PERIOD   25   TIME STEP    8
 
 SOLVING FOR HEAD 
                                                   Max.-Head-Change                         Max.-Flux-Residual
  Residual-Control   Outer-Iter.   Inner-Iter.     Column Row Layer    Maximum-Head-Change  Column Row Layer    Maximum-Flux-Residual          L2-NORM 
          0                 1           2             4    7     1       0.4038828921E-02       4    7    1         0.2128397218E+00      0.5443021554E+00
          0                 2           2             4    7     1      -0.4002116867E-03       4    7    1        -0.2128400226E-01      0.5442528786E-01
          0                 3           1             4    7     1       0.3569190666E-04       4    7    1         0.1915560156E-02      0.4897819714E-02

    ------------------------------------------------
       NWT REQUIRED            3 OUTER ITERATIONS 
       AND A TOTAL OF          5 INNER ITERATIONS.
    ------------------------------------------------

 NO OUTPUT CONTROL FOR STRESS PERIOD   25   TIME STEP    9
 
 SOLVING FOR HEAD 
                                                   Max.-Head-Change                         Max.-Flux-Residual
  Residual-Control   Outer-Iter.   Inner-Iter.     Column Row Layer    Maximum-Head-Change  Column Row Layer    Maximum-Flux-Residual          L2-NORM 
          0                 1           2             4    7     1       0.3985604175E-02       4    7    1         0.2100139084E+00      0.5385025714E+00
          0                 2           2             4    7     1      -0.3949375834E-03       4    7    1        -0.2100141994E-01      0.5384564043E-01
          0                 3           1             4    7     1       0.3522154846E-04       4    7    1         0.1890127739E-02      0.4845675164E-02

    ------------------------------------------------
       NWT REQUIRED            3 OUTER ITERATIONS 
       AND A TOTAL OF          5 INNER ITERATIONS.
    ------------------------------------------------

 NO OUTPUT CONTROL FOR STRESS PERIOD   25   TIME STEP   10
 
 SOLVING FOR HEAD 
                                                   Max.-Head-Change                         Max.-Flux-Residual
  Residual-Control   Outer-Iter.   Inner-Iter.     Column Row Layer    Maximum-Head-Change  Column Row Layer    Maximum-Flux-Residual          L2-NORM 
          0                 1           2             4    7     1       0.3933584379E-02       4    7    1         0.2072521659E+00      0.5328717237E+00
          0                 2           2             4    7     1      -0.3897828811E-03       4    7    1        -0.2072524480E-01      0.5328287487E-01
          0                 3           1             4    7     1       0.3476183912E-04       4    7    1         0.1865271982E-02      0.4795090103E-02

    ------------------------------------------------
       NWT REQUIRED            3 OUTER ITERATIONS 
       AND A TOTAL OF          5 INNER ITERATIONS.
    ------------------------------------------------

 NO OUTPUT CONTROL FOR STRESS PERIOD   25   TIME STEP   11
 
 SOLVING FOR HEAD 
                                                   Max.-Head-Change                         Max.-Flux-Residual
  Residual-Control   Outer-Iter.   Inner-Iter.     Column Row Layer    Maximum-Head-Change  Column Row Layer    Maximum-Flux-Residual          L2-NORM 
          0                 1           2             4    7     1       0.3882457405E-02       4    7    1         0.2045381324E+00      0.5273751980E+00
          0                 2           2             4    7     1      -0.3847166496E-03       4    7    1        -0.2045384056E-01      0.5273355411E-01
          0                 3           1             4    7     1       0.3431001974E-04       4    7    1         0.1840845613E-02      0.4745654567E-02

    ------------------------------------------------
       NWT REQUIRED            3 OUTER ITERATIONS 
       AND A TOTAL OF          5 INNER ITERATIONS.
    ------------------------------------------------

 NO OUTPUT CONTROL FOR STRESS PERIOD   25   TIME STEP   12
 
 SOLVING FOR HEAD 
                                                   Max.-Head-Change                         Max.-Flux-Residual
  Residual-Control   Outer-Iter.   Inner-Iter.     Column Row Layer    Maximum-Head-Change  Column Row Layer    Maximum-Flux-Residual          L2-NORM 
          0                 1           2             4    7     1       0.3832481735E-02       4    7    1         0.2018852394E+00      0.5220201710E+00
          0                 2           2             4    7     1      -0.3797645023E-03       4    7    1        -0.2018855040E-01      0.5219808694E-01
          0                 3           1             4    7     1       0.3386837476E-04       4    7    1         0.1816969510E-02      0.4697470686E-02

    ------------------------------------------------
       NWT REQUIRED            3 OUTER ITERATIONS 
       AND A TOTAL OF          5 INNER ITERATIONS.
    ------------------------------------------------

 NO OUTPUT CONTROL FOR STRESS PERIOD   25   TIME STEP   13
 
 SOLVING FOR HEAD 
                                                   Max.-Head-Change                         Max.-Flux-Residual
  Residual-Control   Outer-Iter.   Inner-Iter.     Column Row Layer    Maximum-Head-Change  Column Row Layer    Maximum-Flux-Residual          L2-NORM 
          0                 1           2             4    7     1       0.3783616263E-02       4    7    1         0.1992920856E+00      0.5167903690E+00
          0                 2           2             4    7     1      -0.3749223660E-03       4    7    1        -0.1992923422E-01      0.5167547938E-01
          0                 3           1             4    7     1       0.3343654021E-04       4    7    1         0.1793631051E-02      0.4650439372E-02

    ------------------------------------------------
       NWT REQUIRED            3 OUTER ITERATIONS 
       AND A TOTAL OF          5 INNER ITERATIONS.
    ------------------------------------------------

 NO OUTPUT CONTROL FOR STRESS PERIOD   25   TIME STEP   14
 
 SOLVING FOR HEAD 
                                                   Max.-Head-Change                         Max.-Flux-Residual
  Residual-Control   Outer-Iter.   Inner-Iter.     Column Row Layer    Maximum-Head-Change  Column Row Layer    Maximum-Flux-Residual          L2-NORM 
          0                 1           2             4    7     1       0.3735558868E-02       4    7    1         0.1967417234E+00      0.5116853324E+00
          0                 2           2             4    7     1      -0.3701603030E-03       4    7    1        -0.1967419719E-01      0.5116519982E-01
          0                 3           1             4    7     1       0.3301184731E-04       4    7    1         0.1770677724E-02      0.4604561225E-02

    ------------------------------------------------
       NWT REQUIRED            3 OUTER ITERATIONS 
       AND A TOTAL OF          5 INNER ITERATIONS.
    ------------------------------------------------

 NO OUTPUT CONTROL FOR STRESS PERIOD   25   TIME STEP   15
 
 SOLVING FOR HEAD 
                                                   Max.-Head-Change                         Max.-Flux-Residual
  Residual-Control   Outer-Iter.   Inner-Iter.     Column Row Layer    Maximum-Head-Change  Column Row Layer    Maximum-Flux-Residual          L2-NORM 
          0                 1           2             4    7     1       0.3688551731E-02       4    7    1         0.1942481051E+00      0.5066860275E+00
          0                 2           2             4    7     1      -0.3655023118E-03       4    7    1        -0.1942483461E-01      0.5066554422E-01
          0                 3           1             4    7     1       0.3259643585E-04       4    7    1         0.1748235107E-02      0.4559620732E-02

    ------------------------------------------------
       NWT REQUIRED            3 OUTER ITERATIONS 
       AND A TOTAL OF          5 INNER ITERATIONS.
    ------------------------------------------------

 NO OUTPUT CONTROL FOR STRESS PERIOD   25   TIME STEP   16
 
 SOLVING FOR HEAD 
                                                   Max.-Head-Change                         Max.-Flux-Residual
  Residual-Control   Outer-Iter.   Inner-Iter.     Column Row Layer    Maximum-Head-Change  Column Row Layer    Maximum-Flux-Residual          L2-NORM 
          0                 1           2             4    7     1       0.3642306235E-02       4    7    1         0.1917941679E+00      0.5018127623E+00
          0                 2           2             4    7     1      -0.3609197923E-03       4    7    1        -0.1917944014E-01      0.5017838343E-01
          0                 3           1             4    7     1       0.3218775493E-04       4    7    1         0.1726149602E-02      0.4515738219E-02

    ------------------------------------------------
       NWT REQUIRED            3 OUTER ITERATIONS 
       AND A TOTAL OF          5 INNER ITERATIONS.
    ------------------------------------------------

 NO OUTPUT CONTROL FOR STRESS PERIOD   25   TIME STEP   17
 
 SOLVING FOR HEAD 
                                                   Max.-Head-Change                         Max.-Flux-Residual
  Residual-Control   Outer-Iter.   Inner-Iter.     Column Row Layer    Maximum-Head-Change  Column Row Layer    Maximum-Flux-Residual          L2-NORM 
          0                 1           2             4    7     1       0.3597335973E-02       4    7    1         0.1894093802E+00      0.4970367664E+00
          0                 2           2             4    7     1      -0.3564636376E-03       4    7    1        -0.1894096069E-01      0.4970097746E-01
          0                 3           1             4    7     1       0.3179034373E-04       4    7    1         0.1704686449E-02      0.4472826757E-02

    ------------------------------------------------
       NWT REQUIRED            3 OUTER ITERATIONS 
       AND A TOTAL OF          5 INNER ITERATIONS.
    ------------------------------------------------

 NO OUTPUT CONTROL FOR STRESS PERIOD   25   TIME STEP   18
 
 SOLVING FOR HEAD 
                                                   Max.-Head-Change                         Max.-Flux-Residual
  Residual-Control   Outer-Iter.   Inner-Iter.     Column Row Layer    Maximum-Head-Change  Column Row Layer    Maximum-Flux-Residual          L2-NORM 
          0                 1           2             4    7     1       0.3552779959E-02       4    7    1         0.1870463177E+00      0.4923498975E+00
          0                 2           2             4    7     1      -0.3520485314E-03       4    7    1        -0.1870465375E-01      0.4923245165E-01
          0                 3           1             4    7     1       0.3139659323E-04       4    7    1         0.1683418829E-02      0.4430689704E-02

    ------------------------------------------------
       NWT REQUIRED            3 OUTER ITERATIONS 
       AND A TOTAL OF          5 INNER ITERATIONS.
    ------------------------------------------------

 NO OUTPUT CONTROL FOR STRESS PERIOD   25   TIME STEP   19
 
 SOLVING FOR HEAD 
                                                   Max.-Head-Change                         Max.-Flux-Residual
  Residual-Control   Outer-Iter.   Inner-Iter.     Column Row Layer    Maximum-Head-Change  Column Row Layer    Maximum-Flux-Residual          L2-NORM 
          0                 1           2             4    7     1       0.3509456550E-02       4    7    1         0.1847491937E+00      0.4877705102E+00
          0                 2           2             4    7     1      -0.3477555657E-03       4    7    1        -0.1847494071E-01      0.4877467958E-01
          0                 3           1             4    7     1       0.3101373571E-04       4    7    1         0.1662744656E-02      0.4389507085E-02

    ------------------------------------------------
       NWT REQUIRED            3 OUTER ITERATIONS 
       AND A TOTAL OF          5 INNER ITERATIONS.
    ------------------------------------------------

 NO OUTPUT CONTROL FOR STRESS PERIOD   25   TIME STEP   20
 
 SOLVING FOR HEAD 
                                                   Max.-Head-Change                         Max.-Flux-Residual
  Residual-Control   Outer-Iter.   Inner-Iter.     Column Row Layer    Maximum-Head-Change  Column Row Layer    Maximum-Flux-Residual          L2-NORM 
          0                 1           2             4    7     1       0.3466774314E-02       4    7    1         0.1824863977E+00      0.4832791277E+00
          0                 2           2             4    7     1      -0.3435261343E-03       4    7    1        -0.1824866045E-01      0.4832563977E-01
          0                 3           1             4    7     1       0.3063654412E-04       4    7    1         0.1642379441E-02      0.4349119423E-02

    ------------------------------------------------
       NWT REQUIRED            3 OUTER ITERATIONS 
       AND A TOTAL OF          5 INNER ITERATIONS.
    ------------------------------------------------

 NO OUTPUT CONTROL FOR STRESS PERIOD   25   TIME STEP   21
 
 SOLVING FOR HEAD 
                                                   Max.-Head-Change                         Max.-Flux-Residual
  Residual-Control   Outer-Iter.   Inner-Iter.     Column Row Layer    Maximum-Head-Change  Column Row Layer    Maximum-Flux-Residual          L2-NORM 
          0                 1           2             4    7     1       0.3424989443E-02       4    7    1         0.1802716857E+00      0.4788776277E+00
          0                 2           2             4    7     1      -0.3393856246E-03       4    7    1        -0.1802718865E-01      0.4788572945E-01
          0                 3           1             4    7     1       0.3026728299E-04       4    7    1         0.1622446993E-02      0.4309531751E-02

    ------------------------------------------------
       NWT REQUIRED            3 OUTER ITERATIONS 
       AND A TOTAL OF          5 INNER ITERATIONS.
    ------------------------------------------------

 NO OUTPUT CONTROL FOR STRESS PERIOD   25   TIME STEP   22
 
 SOLVING FOR HEAD 
                                                   Max.-Head-Change                         Max.-Flux-Residual
  Residual-Control   Outer-Iter.   Inner-Iter.     Column Row Layer    Maximum-Head-Change  Column Row Layer    Maximum-Flux-Residual          L2-NORM 
          0                 1           2             4    7     1       0.3383802655E-02       4    7    1         0.1780887210E+00      0.4745613312E+00
          0                 2           2             4    7     1      -0.3353043794E-03       4    7    1        -0.1780889162E-01      0.4745413300E-01
          0                 3           1             4    7     1       0.2990330689E-04       4    7    1         0.1602800250E-02      0.4270676562E-02

    ------------------------------------------------
       NWT REQUIRED            3 OUTER ITERATIONS 
       AND A TOTAL OF          5 INNER ITERATIONS.
    ------------------------------------------------

 NO OUTPUT CONTROL FOR STRESS PERIOD   25   TIME STEP   23
 
 SOLVING FOR HEAD 
                                                   Max.-Head-Change                         Max.-Flux-Residual
  Residual-Control   Outer-Iter.   Inner-Iter.     Column Row Layer    Maximum-Head-Change  Column Row Layer    Maximum-Flux-Residual          L2-NORM 
          0                 1           2             4    7     1       0.3343747001E-02       4    7    1         0.1759664200E+00      0.4703289511E+00
          0                 2           2             4    7     1      -0.3313352200E-03       4    7    1        -0.1759666095E-01      0.4703111421E-01
          0                 3           1             4    7     1       0.2954932713E-04       4    7    1         0.1583699496E-02      0.4232640374E-02

    ------------------------------------------------
       NWT REQUIRED            3 OUTER ITERATIONS 
       AND A TOTAL OF          5 INNER ITERATIONS.
    ------------------------------------------------

 NO OUTPUT CONTROL FOR STRESS PERIOD   25   TIME STEP   24
 
 SOLVING FOR HEAD 
                                                   Max.-Head-Change                         Max.-Flux-Residual
  Residual-Control   Outer-Iter.   Inner-Iter.     Column Row Layer    Maximum-Head-Change  Column Row Layer    Maximum-Flux-Residual          L2-NORM 
          0                 1           2             4    7     1       0.3303964171E-02       4    7    1         0.1738583657E+00      0.4661703393E+00
          0                 2           2             4    7     1      -0.3273930950E-03       4    7    1        -0.1738585498E-01      0.4661526273E-01
          0                 3           1             4    7     1       0.2919775829E-04       4    7    1         0.1564726957E-02      0.4195217163E-02

    ------------------------------------------------
       NWT REQUIRED            3 OUTER ITERATIONS 
       AND A TOTAL OF          5 INNER ITERATIONS.
    ------------------------------------------------

 NO OUTPUT CONTROL FOR STRESS PERIOD   25   TIME STEP   25
 
 SOLVING FOR HEAD 
                                                   Max.-Head-Change                         Max.-Flux-Residual
  Residual-Control   Outer-Iter.   Inner-Iter.     Column Row Layer    Maximum-Head-Change  Column Row Layer    Maximum-Flux-Residual          L2-NORM 
          0                 1           2             4    7     1       0.3265270622E-02       4    7    1         0.1718089136E+00      0.4620908901E+00
          0                 2           2             4    7     1      -0.3235589081E-03       4    7    1        -0.1718090924E-01      0.4620746590E-01
          0                 3           1             4    7     1       0.2885581570E-04       4    7    1         0.1546281853E-02      0.4158494932E-02

    ------------------------------------------------
       NWT REQUIRED            3 OUTER ITERATIONS 
       AND A TOTAL OF          5 INNER ITERATIONS.
    ------------------------------------------------

 NO OUTPUT CONTROL FOR STRESS PERIOD   25   TIME STEP   26
 
 SOLVING FOR HEAD 
                                                   Max.-Head-Change                         Max.-Flux-Residual
  Residual-Control   Outer-Iter.   Inner-Iter.     Column Row Layer    Maximum-Head-Change  Column Row Layer    Maximum-Flux-Residual          L2-NORM 
          0                 1           2             4    7     1       0.3227082053E-02       4    7    1         0.1697863511E+00      0.4580804080E+00
          0                 2           2             4    7     1      -0.3197747605E-03       4    7    1        -0.1697865250E-01      0.4580650446E-01
          0                 3           1             4    7     1       0.2851833590E-04       4    7    1         0.1528078738E-02      0.4122475196E-02

    ------------------------------------------------
       NWT REQUIRED            3 OUTER ITERATIONS 
       AND A TOTAL OF          5 INNER ITERATIONS.
    ------------------------------------------------

 NO OUTPUT CONTROL FOR STRESS PERIOD   25   TIME STEP   27
 
 SOLVING FOR HEAD 
                                                   Max.-Head-Change                         Max.-Flux-Residual
  Residual-Control   Outer-Iter.   Inner-Iter.     Column Row Layer    Maximum-Head-Change  Column Row Layer    Maximum-Flux-Residual          L2-NORM 
          0                 1           2             4    7     1       0.3189659154E-02       4    7    1         0.1678048066E+00      0.4541427591E+00
          0                 2           2             4    7     1      -0.3160664839E-03       4    7    1        -0.1678049755E-01      0.4541280780E-01
          0                 3           1             4    7     1       0.2818762201E-04       4    7    1         0.1510244795E-02      0.4087005216E-02

    ------------------------------------------------
       NWT REQUIRED            3 OUTER ITERATIONS 
       AND A TOTAL OF          5 INNER ITERATIONS.
    ------------------------------------------------

 NO OUTPUT CONTROL FOR STRESS PERIOD   25   TIME STEP   28
 
 SOLVING FOR HEAD 
                                                   Max.-Head-Change                         Max.-Flux-Residual
  Residual-Control   Outer-Iter.   Inner-Iter.     Column Row Layer    Maximum-Head-Change  Column Row Layer    Maximum-Flux-Residual          L2-NORM 
          0                 1           2             4    7     1       0.3152975485E-02       4    7    1         0.1658629911E+00      0.4502726548E+00
          0                 2           2             4    7     1      -0.3124314585E-03       4    7    1        -0.1658631553E-01      0.4502599025E-01
          0                 3           1             4    7     1       0.2786344144E-04       4    7    1         0.1492768414E-02      0.4052232728E-02

    ------------------------------------------------
       NWT REQUIRED            3 OUTER ITERATIONS 
       AND A TOTAL OF          5 INNER ITERATIONS.
    ------------------------------------------------

 NO OUTPUT CONTROL FOR STRESS PERIOD   25   TIME STEP   29
 
 SOLVING FOR HEAD 
                                                   Max.-Head-Change                         Max.-Flux-Residual
  Residual-Control   Outer-Iter.   Inner-Iter.     Column Row Layer    Maximum-Head-Change  Column Row Layer    Maximum-Flux-Residual          L2-NORM 
          0                 1           2             4    7     1       0.3117017840E-02       4    7    1         0.1639595328E+00      0.4464803220E+00
          0                 2           2             4    7     1      -0.3088683764E-03       4    7    1        -0.1639596925E-01      0.4464673408E-01
          0                 3           1             4    7     1       0.2754567658E-04       4    7    1         0.1475637260E-02      0.4018057127E-02

    ------------------------------------------------
       NWT REQUIRED            3 OUTER ITERATIONS 
       AND A TOTAL OF          5 INNER ITERATIONS.
    ------------------------------------------------

 NO OUTPUT CONTROL FOR STRESS PERIOD   25   TIME STEP   30



 STREAM LISTING     PERIOD     25   STEP       30

 LAYER ROW COL. STREAM  RCH.  FLOW INTO     FLOW TO   FLOW OUT OF   OVRLND.     DIRECT     STREAM       STREAM     STREAM     STREAM   STREAMBED  STREAMBED
                SEG.NO.  NO.  STRM. RCH.    AQUIFER    STRM. RCH.    RUNOFF     PRECIP       ET          HEAD       DEPTH      WIDTH   CONDCTNC.   GRADIENT

   1    1    1     1     1    3.5000E+00  8.3255E-02   3.4167E+00  0.000E+00  0.000E+00  0.000E+00  1.09371E+03  6.654E-01  5.047E+00  2.271E-02  1.222E+00
   1    2    2     1     2    3.4167E+00  1.2792E-01   3.2888E+00  0.000E+00  0.000E+00  0.000E+00  1.08872E+03  6.583E-01  4.995E+00  3.497E-02  1.219E+00
   1    3    3     1     3    3.2888E+00  1.0809E-01   3.1807E+00  0.000E+00  0.000E+00  0.000E+00  1.08307E+03  6.502E-01  4.935E+00  2.961E-02  1.217E+00
   1    3    4     1     4    3.1807E+00  9.8702E-02   3.0820E+00  0.000E+00  0.000E+00  0.000E+00  1.07805E+03  6.428E-01  4.882E+00  2.709E-02  1.214E+00
   1    4    5     2     1    1.0820E+00  2.4731E-01   8.3473E-01  0.000E+00  0.000E+00  0.000E+00  1.07210E+03  1.706E-01  1.200E+01  7.800E-02  1.057E+00
   1    5    6     2     2    8.3473E-01  1.8877E-01   6.4596E-01  0.000E+00  0.000E+00  0.000E+00  1.06666E+03  1.462E-01  1.200E+01  6.000E-02  1.049E+00
   1    6    6     2     3    6.4596E-01  1.8736E-01   4.5860E-01  0.000E+00  0.000E+00  0.000E+00  1.06192E+03  1.226E-01  1.200E+01  6.000E-02  1.041E+00
   1    7    6     2     4    4.5860E-01  1.8574E-01   2.7286E-01  0.000E+00  0.000E+00  0.000E+00  1.05717E+03  9.573E-02  1.200E+01  6.000E-02  1.032E+00
   1    8    6     2     5    2.7286E-01  1.8377E-01   8.9092E-02  0.000E+00  0.000E+00  0.000E+00  1.05242E+03  6.276E-02  1.200E+01  6.000E-02  1.021E+00
   1    3    5     3     1    2.0000E+00  2.8252E-01   1.7175E+00  0.000E+00  0.000E+00  0.000E+00  1.07555E+03  1.909E+00  9.636E+00  7.227E-02  1.955E+00
   1    3    6     3     2    1.7175E+00  2.4905E-01   1.4684E+00  0.000E+00  0.000E+00  0.000E+00  1.07264E+03  1.727E+00  8.909E+00  6.682E-02  1.864E+00
   1    3    7     3     3    1.4684E+00  1.9718E-01   1.2712E+00  0.000E+00  0.000E+00  0.000E+00  1.06987E+03  1.555E+00  8.218E+00  5.547E-02  1.777E+00
   1    4    8     3     4    1.2712E+00  2.2567E-01   1.0456E+00  0.000E+00  0.000E+00  0.000E+00  1.06682E+03  1.364E+00  7.455E+00  6.709E-02  1.682E+00
   1    5    8     3     5    1.0456E+00  1.5790E-01   8.8768E-01  0.000E+00  0.000E+00  0.000E+00  1.06362E+03  1.164E+00  6.655E+00  4.991E-02  1.582E+00
   1    6    8     3     6    8.8768E-01  5.5980E-02   8.3170E-01  0.000E+00  0.000E+00  0.000E+00  1.06158E+03  1.036E+00  6.145E+00  1.844E-02  1.518E+00
   1    5   10     4     1    1.0000E+01  9.0919E-02   9.9091E+00  0.000E+00  0.000E+00  0.000E+00  1.07836E+03  6.368E-01  1.000E+01  2.500E-02  1.212E+00
   1    5    9     4     2    9.9091E+00  1.8158E-01   9.7275E+00  0.000E+00  0.000E+00  0.000E+00  1.07154E+03  6.315E-01  1.000E+01  5.000E-02  1.211E+00
   1    6    8     4     3    9.7275E+00  1.2689E-01   9.6006E+00  0.000E+00  0.000E+00  0.000E+00  1.06381E+03  6.256E-01  1.000E+01  3.500E-02  1.209E+00
   1    6    8     5     1    1.0432E+01  2.2686E-01   1.0205E+01  0.000E+00  0.000E+00  0.000E+00  1.05868E+03  6.790E-01  1.542E+01  6.166E-02  1.226E+00
   1    7    7     5     2    1.0205E+01  2.7894E-01   9.9265E+00  0.000E+00  0.000E+00  0.000E+00  1.05417E+03  6.732E-01  1.519E+01  7.594E-02  1.224E+00
   1    8    7     5     3    9.9265E+00  1.9221E-01   9.7343E+00  0.000E+00  0.000E+00  0.000E+00  1.04992E+03  6.676E-01  1.497E+01  5.241E-02  1.223E+00
   1    8    6     5     4    9.7343E+00  1.3577E-01   9.5985E+00  0.000E+00  0.000E+00  0.000E+00  1.04691E+03  6.637E-01  1.482E+01  3.706E-02  1.221E+00
   1    9    6     6     1    9.6876E+00  2.2120E-01   9.4664E+00  0.000E+00  0.000E+00  0.000E+00  1.04341E+03  6.866E-01  1.200E+01  6.000E-02  1.229E+00
   1   10    7     6     2    9.4664E+00  2.2062E-01   9.2458E+00  0.000E+00  0.000E+00  0.000E+00  1.03886E+03  6.771E-01  1.200E+01  6.000E-02  1.226E+00
   1   11    7     6     3    9.2458E+00  2.2005E-01   9.0258E+00  0.000E+00  0.000E+00  0.000E+00  1.03430E+03  6.674E-01  1.200E+01  6.000E-02  1.222E+00
   1   12    7     6     4    9.0258E+00  2.1947E-01   8.8063E+00  0.000E+00  0.000E+00  0.000E+00  1.02975E+03  6.578E-01  1.200E+01  6.000E-02  1.219E+00
   1   13    7     6     5    8.8063E+00 -9.7005E-02   8.9033E+00  0.000E+00  0.000E+00  0.000E+00  1.02656E+03  6.551E-01  1.200E+01  2.400E-01 -1.347E-01
   1   14    9     7     1    1.5000E+02  1.3437E+00   1.4866E+02  0.000E+00  0.000E+00  0.000E+00  1.03987E+03  2.288E+00  5.529E+01  5.593E-01  8.008E-01
   1   13    8     7     2    1.4866E+02  1.8605E+00   1.4680E+02  0.000E+00  0.000E+00  0.000E+00  1.03478E+03  2.279E+00  5.526E+01  6.148E-01  1.009E+00
   1   13    7     7     3    1.4680E+02  1.5196E+00   1.4528E+02  0.000E+00  0.000E+00  0.000E+00  1.02969E+03  2.270E+00  5.522E+01  5.584E-01  9.071E-01
   1   13    6     8     1    1.5418E+02  8.8241E-01   1.5330E+02  0.000E+00  0.000E+00  0.000E+00  1.02472E+03  2.843E+00  4.122E+01  4.201E-01  7.002E-01
   1   13    5     8     2    1.5330E+02  1.5351E-01   1.5314E+02  0.000E+00  0.000E+00  0.000E+00  1.01846E+03  2.839E+00  4.117E+01  4.195E-01  1.220E-01
   1   13    4     8     3    1.5314E+02 -2.5079E+00   1.5565E+02  0.000E+00  0.000E+00  0.000E+00  1.01222E+03  2.848E+00  4.129E+01  4.208E+00 -1.987E-01
   1   13    3     8     4    1.5565E+02 -3.6663E+00   1.5932E+02  0.000E+00  0.000E+00  0.000E+00  1.00599E+03  2.869E+00  4.160E+01  4.239E+00 -2.883E-01
   1   13    2     8     5    1.5932E+02 -2.5773E+00   1.6190E+02  0.000E+00  0.000E+00  0.000E+00  9.99765E+02  2.890E+00  4.190E+01  4.270E+00 -2.012E-01
   1   13    1     8     6    1.6190E+02 -1.9668E+00   1.6386E+02  0.000E+00  0.000E+00  0.000E+00  9.94780E+02  2.905E+00  4.213E+01  2.576E+00 -2.545E-01
   1    6    8     9     1    0.0000E+00  0.0000E+00   0.0000E+00  0.000E+00  0.000E+00  0.000E+00  1.07850E+03  0.000E+00  4.000E+00  0.000E+00  1.000E+00





UNSATURATED ZONE PACKAGE VOLUMETRIC BUDGET FOR  TIME STEP    30 STRESS PERIOD   25
  ------------------------------------------------------------------------------



     CUMULATIVE VOLUMES      L**3       RATES FOR THIS TIME STEP      L**3/T
     ------------------                 ------------------------

           IN:                                      IN:
           ---                                      ---
        INFILTRATION =   127573932.4790          INFILTRATION =       0.0000E+00

          OUT:                                     OUT:
          ----                                     ----
              UZF ET =   100563278.9661                UZF ET =           0.0140
        UZF RECHARGE =       73224.0000          UZF RECHARGE =       0.0000E+00

            IN - OUT =    26937429.5129              IN - OUT =          -0.0140

          STORAGE:                                 STORAGE:
          --------                                 --------
      STORAGE CHANGE =    26937287.7106        STORAGE CHANGE =          -0.0140

 PERCENT DISCREPANCY IS DIFFERENCE BETWEEN IN-OUT MINUS CHANGE IN STORAGE
 DIVIDED BY THE AVERAGE OF IN AND OUT TIMES 100

 PERCENT DISCREPANCY =           0.00     PERCENT DISCREPANCY =           0.00






1
  VOLUMETRIC BUDGET FOR ENTIRE MODEL AT END OF TIME STEP   30, STRESS PERIOD  25
  ------------------------------------------------------------------------------

     CUMULATIVE VOLUMES      L**3       RATES FOR THIS TIME STEP      L**3/T
     ------------------                 ------------------------

           IN:                                      IN:
           ---                                      ---
    AWU WELLS            =   127500664.0000      AWU WELLS            =           0.0000
    DIVERSION SEGMENTS   =           0.0000      DIVERSION SEGMENTS   =           0.0000
    GW IRRIGATION        =           0.0000      GW IRRIGATION        =           0.0000
    SW IRRIGATION        =           0.0000      SW IRRIGATION        =           0.0000
    EFFICIENCY FACTOR GW =           0.0000      EFFICIENCY FACTOR GW =           0.0000
    EFFICIENCY FACTOR SW =           0.0000      EFFICIENCY FACTOR SW =           0.0000

                TOTAL IN =   127500664.0000                  TOTAL IN =           0.0000

          OUT:                                     OUT:
          ----                                     ----
    AWU WELLS            =           0.0000      AWU WELLS            =           0.0000
    DIVERSION SEGMENTS   =           0.0000      DIVERSION SEGMENTS   =           0.0000
    GW IRRIGATION        =   127500664.0000      GW IRRIGATION        =           0.0000
    SW IRRIGATION        =           0.0000      SW IRRIGATION        =           0.0000
    EFFICIENCY FACTOR GW =           0.0000      EFFICIENCY FACTOR GW =           0.0000
    EFFICIENCY FACTOR SW =           0.0000      EFFICIENCY FACTOR SW =           0.0000

               TOTAL OUT =   127500664.0000                 TOTAL OUT =           0.0000

                IN - OUT =           0.0000                  IN - OUT =           0.0000

     PERCENT DISCREPANCY =           0.00         PERCENT DISCREPANCY =           0.00



1
  VOLUMETRIC BUDGET FOR ENTIRE MODEL AT END OF TIME STEP   30, STRESS PERIOD  25
  ------------------------------------------------------------------------------

     CUMULATIVE VOLUMES      L**3       RATES FOR THIS TIME STEP      L**3/T
     ------------------                 ------------------------

           IN:                                      IN:
           ---                                      ---
             STORAGE     =   243630592.0000               STORAGE     =           1.7647
       CONSTANT HEAD     =           0.0000         CONSTANT HEAD     =           0.0000
     HEAD DEP BOUNDS     =    18063530.0000       HEAD DEP BOUNDS     =           0.2863
      STREAM LEAKAGE     =   735808704.0000        STREAM LEAKAGE     =          10.4534
        UZF RECHARGE     =       73223.9531          UZF RECHARGE     =           0.0000
               GW ET     =           0.0000                 GW ET     =           0.0000
     SURFACE LEAKAGE     =           0.0000       SURFACE LEAKAGE     =           0.0000
    AWU WELLS            =           0.0000      AWU WELLS            =           0.0000

                TOTAL IN =   997576064.0000                  TOTAL IN =          12.5044

          OUT:                                     OUT:
          ----                                     ----
             STORAGE     =   136449744.0000               STORAGE     =           1.3922
       CONSTANT HEAD     =           0.0000         CONSTANT HEAD     =           0.0000
     HEAD DEP BOUNDS     =    18049716.0000       HEAD DEP BOUNDS     =           0.2867
      STREAM LEAKAGE     =   607541632.0000        STREAM LEAKAGE     =          10.8154
        UZF RECHARGE     =           0.0000          UZF RECHARGE     =           0.0000
               GW ET     =   108020560.0000                 GW ET     =       9.8869E-03
     SURFACE LEAKAGE     =           0.0000       SURFACE LEAKAGE     =           0.0000
    AWU WELLS            =   127500664.0000      AWU WELLS            =           0.0000

               TOTAL OUT =   997562304.0000                 TOTAL OUT =          12.5041

                IN - OUT =       13760.0000                  IN - OUT =       2.7275E-04

     PERCENT DISCREPANCY =           0.00         PERCENT DISCREPANCY =           0.00






         TIME SUMMARY AT END OF TIME STEP   30 IN STRESS PERIOD   25
                    SECONDS     MINUTES      HOURS       DAYS        YEARS
                    -----------------------------------------------------------
   TIME STEP LENGTH  87600.      1460.0      24.333      1.0139     2.77588E-03
 STRESS PERIOD TIME 2.62800E+06  43800.      730.00      30.417     8.32763E-02
         TOTAL TIME 6.31584E+07 1.05264E+06  17544.      731.00      2.0014    
1

 Run end date and time (yyyy/mm/dd hh:mm:ss): 2018/03/20 11:33:14
 Elapsed run time:  4.287 Seconds

