                                  MODFLOW-NWT-SWR1 
      U.S. GEOLOGICAL SURVEY MODULAR FINITE-DIFFERENCE GROUNDWATER-FLOW MODEL
                             VERSION 1.1.4 4/01/2018
                    BASED ON MODFLOW-2005 VERSION 1.12.00 02/03/2017

 LIST FILE: ./output/Agwater1_high.lst
                         UNIT    9

 OPENING ./input/Agwater1.ba6
 FILE TYPE:BAS6   UNIT   75   STATUS:OLD    
 FORMAT:FORMATTED              ACCESS:SEQUENTIAL          

 OPENING ./input/Agwater1.upw
 FILE TYPE:UPW   UNIT    7   STATUS:OLD    
 FORMAT:FORMATTED              ACCESS:SEQUENTIAL          

 OPENING ./input/Agwater1.dis
 FILE TYPE:DIS   UNIT    8   STATUS:OLD    
 FORMAT:FORMATTED              ACCESS:SEQUENTIAL          

 OPENING ./input/Agwater1.nwt
 FILE TYPE:NWT   UNIT   13   STATUS:OLD    
 FORMAT:FORMATTED              ACCESS:SEQUENTIAL          

 OPENING ./input/Agwater1.oc
 FILE TYPE:OC   UNIT   14   STATUS:OLD    
 FORMAT:FORMATTED              ACCESS:SEQUENTIAL          

 OPENING ./input/Agwater1.sfr
 FILE TYPE:SFR   UNIT   15   STATUS:OLD    
 FORMAT:FORMATTED              ACCESS:SEQUENTIAL          

 OPENING ./input/Agwater1.ghb
 FILE TYPE:GHB   UNIT   17   STATUS:OLD    
 FORMAT:FORMATTED              ACCESS:SEQUENTIAL          

 OPENING ./input/Agwater1.uzf
 FILE TYPE:UZF   UNIT   19   STATUS:OLD    
 FORMAT:FORMATTED              ACCESS:SEQUENTIAL          

 OPENING ./input/Agwater1.gag
 FILE TYPE:GAGE   UNIT   32   STATUS:OLD    
 FORMAT:FORMATTED              ACCESS:SEQUENTIAL          

 OPENING ./input/seg1_high.tab
 FILE TYPE:DATA   UNIT   55   STATUS:UNKNOWN
 FORMAT:FORMATTED              ACCESS:SEQUENTIAL          

 OPENING ./input/seg9.tab
 FILE TYPE:DATA   UNIT   56   STATUS:UNKNOWN
 FORMAT:FORMATTED              ACCESS:SEQUENTIAL          

 OPENING ./input/Agwater1.ag
 FILE TYPE:AG   UNIT   57   STATUS:OLD    
 FORMAT:FORMATTED              ACCESS:SEQUENTIAL          

 OPENING ./output/Agwater1.hed
 FILE TYPE:DATA   UNIT   62   STATUS:UNKNOWN
 FORMAT:FORMATTED              ACCESS:SEQUENTIAL          

 OPENING ./output/Agwater1gw_high.ts5
 FILE TYPE:DATA   UNIT  105   STATUS:UNKNOWN
 FORMAT:FORMATTED              ACCESS:SEQUENTIAL          

 OPENING ./output/Agwater1SW_high.ts9
 FILE TYPE:DATA   UNIT  107   STATUS:UNKNOWN
 FORMAT:FORMATTED              ACCESS:SEQUENTIAL          

 OPENING ./output/Agwater1SW_ET_high.ts9
 FILE TYPE:DATA   UNIT  108   STATUS:UNKNOWN
 FORMAT:FORMATTED              ACCESS:SEQUENTIAL          

 OPENING ./output/Agwater1.uzfot
 FILE TYPE:DATA(BINARY)   UNIT   61   STATUS:UNKNOWN
 FORMAT:BINARY                 ACCESS:SEQUENTIAL          

 OPENING ./output/Agwater1cbc.unf
 FILE TYPE:DATA(BINARY)   UNIT  102   STATUS:UNKNOWN
 FORMAT:BINARY                 ACCESS:SEQUENTIAL          

 OPENING ./output/Agwater1.uzf1
 FILE TYPE:DATA   UNIT   65   STATUS:UNKNOWN
 FORMAT:FORMATTED              ACCESS:SEQUENTIAL          

 OPENING ./output/Agwater1.uzf2
 FILE TYPE:DATA   UNIT   66   STATUS:UNKNOWN
 FORMAT:FORMATTED              ACCESS:SEQUENTIAL          

 OPENING ./output/Agwater1.uzf3
 FILE TYPE:DATA   UNIT   67   STATUS:UNKNOWN
 FORMAT:FORMATTED              ACCESS:SEQUENTIAL          

 OPENING ./output/Agwater1.uzf4
 FILE TYPE:DATA   UNIT   68   STATUS:UNKNOWN
 FORMAT:FORMATTED              ACCESS:SEQUENTIAL          

 OPENING ./output/Agwater1.flw
 FILE TYPE:DATA   UNIT   81   STATUS:UNKNOWN
 FORMAT:FORMATTED              ACCESS:SEQUENTIAL          

 OPENING ./output/Agwater1.sg1
 FILE TYPE:DATA   UNIT   83   STATUS:UNKNOWN
 FORMAT:FORMATTED              ACCESS:SEQUENTIAL          

 OPENING ./output/Agwater1.sg2
 FILE TYPE:DATA   UNIT   84   STATUS:UNKNOWN
 FORMAT:FORMATTED              ACCESS:SEQUENTIAL          

 OPENING ./output/Agwater1.sg3
 FILE TYPE:DATA   UNIT   85   STATUS:UNKNOWN
 FORMAT:FORMATTED              ACCESS:SEQUENTIAL          

 OPENING ./output/Agwater1.sg4
 FILE TYPE:DATA   UNIT   86   STATUS:UNKNOWN
 FORMAT:FORMATTED              ACCESS:SEQUENTIAL          

 OPENING ./output/Agwater1.sg5
 FILE TYPE:DATA   UNIT   87   STATUS:UNKNOWN
 FORMAT:FORMATTED              ACCESS:SEQUENTIAL          

 OPENING ./output/Agwater1.sg6
 FILE TYPE:DATA   UNIT   88   STATUS:UNKNOWN
 FORMAT:FORMATTED              ACCESS:SEQUENTIAL          

 OPENING ./output/Agwater1.sg7
 FILE TYPE:DATA   UNIT   89   STATUS:UNKNOWN
 FORMAT:FORMATTED              ACCESS:SEQUENTIAL          

 OPENING ./output/Agwater1.sg8
 FILE TYPE:DATA   UNIT   90   STATUS:UNKNOWN
 FORMAT:FORMATTED              ACCESS:SEQUENTIAL          

 OPENING ./output/Agwater1.sg9
 FILE TYPE:DATA   UNIT   91   STATUS:UNKNOWN
 FORMAT:FORMATTED              ACCESS:SEQUENTIAL          

 BAS -- BASIC PACKAGE, VERSION 1.1.4, 4/01/2018 INPUT READ FROM UNIT   75
 
 MODFLOW was compiled using mixed precision
 Precision of REAL variables:           6
 Precision of DOUBLE PRECISION variables:          15

 DISCRETIZATION INPUT DATA READ FROM UNIT    8
 #Test problem 2-- Discretization input
 #Example problem using the UZF1 Package
    1 LAYERS        15 ROWS        10 COLUMNS
   49 STRESS PERIOD(S) IN SIMULATION
 MODEL TIME UNIT IS SECONDS
 MODEL LENGTH UNIT IS FEET
  Confining bed flag for each layer:
   0

                     DELR =   5000.00    

                     DELC =   5000.00    



           TOP ELEVATION OF LAYER 1
 READING ON UNIT    8 WITH FORMAT: (10F7.0)            

            1           2           3           4           5           6           7           8           9          10
 ........................................................................................................................
   1    1105.       1105.       0.000       0.000       0.000       0.000       0.000       0.000       0.000       0.000    
   2    1105.       1095.       1105.       0.000       0.000       1100.       1100.       1110.       0.000       0.000    
   3    0.000       1100.       1085.       1080.       1078.       1076.       1073.       1090.       0.000       0.000    
   4    1110.       1100.       1090.       1085.       1076.       1080.       1080.       1070.       1100.       0.000    
   5    1110.       1100.       1085.       1080.       1078.       1074.       1077.       1066.       1075.       1080.    
   6    1105.       1095.       1080.       1077.       1073.       1069.       1070.       1063.       1085.       1095.    
   7    1105.       1090.       1075.       1072.       1070.       1065.       1065.       1069.       1090.       0.000    
   8    0.000       1080.       1070.       1068.       1063.       1060.       1063.       1067.       1090.       0.000    
   9    0.000       1075.       1065.       1062.       1058.       1052.       1055.       1065.       1090.       0.000    
  10    0.000       1070.       1060.       1055.       1046.       1046.       1044.       1060.       1088.       1100.    
  11    0.000       1055.       1050.       1045.       1041.       1042.       1040.       1050.       1075.       0.000    
  12    1027.       1028.       1028.       1032.       1032.       1033.       1032.       1040.       1060.       0.000    
  13    997.0       1004.       1008.       1014.       1020.       1027.       1032.       1038.       1050.       0.000    
  14    0.000       1030.       1040.       1045.       1050.       1050.       1050.       1050.       1044.       0.000    
  15    0.000       0.000       1080.       1080.       1080.       1080.       0.000       0.000       0.000       0.000    



             MODEL LAYER BOTTOM EL. FOR LAYER   1
 READING ON UNIT    8 WITH FORMAT: (10F7.0)            

            1           2           3           4           5           6           7           8           9          10
 ........................................................................................................................
   1    1000.       1000.       0.000       0.000       0.000       0.000       0.000       0.000       0.000       0.000    
   2    1000.       900.0       900.0       0.000       0.000       950.0       950.0       950.0       0.000       0.000    
   3    0.000       850.0       670.0       680.0       680.0       770.0       770.0       890.0       0.000       0.000    
   4    925.0       850.0       650.0       650.0       650.0       680.0       740.0       850.0       950.0       0.000    
   5    925.0       800.0       650.0       600.0       600.0       600.0       650.0       720.0       850.0       950.0    
   6    925.0       800.0       650.0       600.0       550.0       600.0       650.0       720.0       850.0       970.0    
   7    925.0       800.0       650.0       600.0       550.0       600.0       650.0       720.0       950.0       0.000    
   8    0.000       850.0       700.0       650.0       570.0       600.0       700.0       850.0       950.0       0.000    
   9    0.000       850.0       700.0       650.0       540.0       580.0       700.0       850.0       950.0       0.000    
  10    0.000       850.0       700.0       630.0       530.0       580.0       650.0       800.0       900.0       950.0    
  11    0.000       850.0       700.0       620.0       580.0       620.0       700.0       800.0       900.0       0.000    
  12    900.0       830.0       710.0       640.0       600.0       650.0       700.0       800.0       900.0       0.000    
  13    900.0       810.0       750.0       700.0       650.0       700.0       750.0       800.0       900.0       0.000    
  14    0.000       950.0       850.0       850.0       850.0       850.0       850.0       850.0       850.0       0.000    
  15    0.000       0.000       950.0       950.0       950.0       950.0       0.000       0.000       0.000       0.000    


 STRESS PERIOD     LENGTH       TIME STEPS     MULTIPLIER FOR DELT    SS FLAG
 ----------------------------------------------------------------------------
        1         86400.00          1                    1.000         SS
        2         2630000.         30                    1.000         TR
        3         2630000.         30                    1.000         TR
        4         2630000.         30                    1.000         TR
        5         2630000.         30                    1.000         TR
        6         2630000.         30                    1.000         TR
        7         2630000.         30                    1.000         TR
        8         2630000.         30                    1.000         TR
        9         2630000.         30                    1.000         TR
       10         2630000.         30                    1.000         TR
       11         2630000.         30                    1.000         TR
       12         2630000.         30                    1.000         TR
       13         2630000.         30                    1.000         TR
       14         2630000.         30                    1.000         TR
       15         2630000.         30                    1.000         TR
       16         2630000.         30                    1.000         TR
       17         2630000.         30                    1.000         TR
       18         2630000.         30                    1.000         TR
       19         2630000.         30                    1.000         TR
       20         2630000.         30                    1.000         TR
       21         2630000.         30                    1.000         TR
       22         2630000.         30                    1.000         TR
       23         2630000.         30                    1.000         TR
       24         2630000.         30                    1.000         TR
       25         2630000.         30                    1.000         TR
       26         2630000.         30                    1.000         TR
       27         2630000.         30                    1.000         TR
       28         2630000.         30                    1.000         TR
       29         2630000.         30                    1.000         TR
       30         2630000.         30                    1.000         TR
       31         2630000.         30                    1.000         TR
       32         2630000.         30                    1.000         TR
       33         2630000.         30                    1.000         TR
       34         2630000.         30                    1.000         TR
       35         2630000.         30                    1.000         TR
       36         2630000.         30                    1.000         TR
       37         2630000.         30                    1.000         TR
       38         2630000.         30                    1.000         TR
       39         2630000.         30                    1.000         TR
       40         2630000.         30                    1.000         TR
       41         2630000.         30                    1.000         TR
       42         2630000.         30                    1.000         TR
       43         2630000.         30                    1.000         TR
       44         2630000.         30                    1.000         TR
       45         2630000.         30                    1.000         TR
       46         2630000.         30                    1.000         TR
       47         2630000.         30                    1.000         TR
       48         2630000.         30                    1.000         TR
       49         2630000.         30                    1.000         TR

 COMBINED STEADY-STATE AND TRANSIENT SIMULATION



 
 #Test Simulation 2-- Example problem using the UZF1 Package                     
 #Modified from example Problem 1 of SFR1 documentation report                   
 THE FREE FORMAT OPTION HAS BEEN SELECTED



                     BOUNDARY ARRAY FOR LAYER   1
 READING ON UNIT   75 WITH FORMAT: (20I4)              

                1           2           3           4           5           6           7           8           9          10
 ............................................................................................................................
   1            1           1           0           0           0           0           0           0           0           0
   2            1           1           1           0           0           1           1           1           0           0
   3            0           1           1           1           1           1           1           1           0           0
   4            1           1           1           1           1           1           1           1           1           0
   5            1           1           1           1           1           1           1           1           1           1
   6            1           1           1           1           1           1           1           1           1           1
   7            1           1           1           1           1           1           1           1           1           0
   8            0           1           1           1           1           1           1           1           1           0
   9            0           1           1           1           1           1           1           1           1           0
  10            0           1           1           1           1           1           1           1           1           1
  11            0           1           1           1           1           1           1           1           1           0
  12            1           1           1           1           1           1           1           1           1           0
  13            1           1           1           1           1           1           1           1           1           0
  14            0           1           1           1           1           1           1           1           1           0
  15            0           0           1           1           1           1           0           0           0           0

 AQUIFER HEAD WILL BE SET TO   6999.0     AT ALL NO-FLOW NODES (IBOUND=0).



                       INITIAL HEAD FOR LAYER   1
 READING ON UNIT   75 WITH FORMAT: (10F8.0)            

            1           2           3           4           5           6           7           8           9          10
 ........................................................................................................................
   1    1093.       1089.       6999.       6999.       6999.       6999.       6999.       6999.       6999.       6999.    
   2    1090.       1087.       1081.       6999.       6999.       1072.       1071.       1071.       6999.       6999.    
   3    6999.       1079.       1078.       1074.       1072.       1071.       1069.       1068.       6999.       6999.    
   4    1069.       1071.       1070.       1067.       1065.       1064.       1064.       1066.       1066.       6999.    
   5    1065.       1064.       1063.       1062.       1061.       1061.       1060.       1062.       1066.       1068.    
   6    1060.       1058.       1057.       1056.       1056.       1057.       1057.       1059.       1062.       1066.    
   7    1056.       1053.       1052.       1051.       1051.       1052.       1053.       1055.       1056.       6999.    
   8    6999.       1046.       1046.       1046.       1046.       1046.       1048.       1050.       1050.       6999.    
   9    6999.       1039.       1039.       1039.       1040.       1041.       1042.       1043.       1044.       6999.    
  10    6999.       1031.       1032.       1033.       1034.       1035.       1037.       1038.       1039.       1042.    
  11    6999.       1021.       1023.       1027.       1029.       1030.       1032.       1034.       1036.       6999.    
  12    1001.       1009.       1015.       1020.       1023.       1026.       1029.       1030.       1034.       6999.    
  13    994.5      1000.0       1007.       1013.       1019.       1024.       1029.       1034.       1036.       6999.    
  14    6999.       1004.       1009.       1014.       1019.       1024.       1029.       1035.       1039.       6999.    
  15    6999.       6999.       1012.       1015.       1019.       1022.       6999.       6999.       6999.       6999.    

 OUTPUT CONTROL IS SPECIFIED ONLY AT TIME STEPS FOR WHICH OUTPUT IS DESIRED
 HEADS WILL BE SAVED WITH FORMAT: (10F10.3)           
 SAVED HEADS WILL BE LABELED
 COMPACT CELL-BY-CELL BUDGET FILES WILL BE WRITTEN
 HEAD PRINT FORMAT CODE IS   4    DRAWDOWN PRINT FORMAT CODE IS   0
 HEADS WILL BE SAVED ON UNIT   62    DRAWDOWNS WILL BE SAVED ON UNIT    0
 # NWT Input File
 # Test Problem 3 for MODFLOW-NWT
 #HEADTOL  FLUXTOL MAXITEROUT THICKFACT LINMETH IPRNWT IBOTAV OPTIONS DBDREDUCE DBDINCREASE DBDGAMMA MOMFACT BACKFLAG MAXBACKITER BACKTOL BACKREDUCE

 NWT1 -- Newton Solver, VERSION 1.1.4, 4/01/2018
         INPUT READ FROM UNIT 13

 SPECIFIED OPTION:
 SOLVER INPUT VALUES ARE SPECIFIED BY USER
 ***XMD linear solver will be used***
 
   CONVERGENCE CRITERION OF   0.100000E-03 FOR HEAD SOLUTION
   AND A TOLERANCE OF   0.100000E+01 FOR FLOW SOLUTION AND 
   A MAXIMUM OF   500 OUTER ITERATIONS. 


   D-B-D REDUCTION FACTOR OF    0.970000E+00 AND 
   A D-B-D INCREASE FACTOR OF    0.100000E-04 AND 
   A D-B-D RELAXATION OF    0.000000E+00 AND 
   A MOMENTUM FACTOR OF    0.100000E+00 .


 ***BACKTRACKING IS INACTIVE***
 XMD -- LINEAR SOLUTION BY XMD PACKAGE VERSION 1.30
     BY MOTOMU IBARAKI, OHIO STATE UNIVERSITY, COLOMBUS, OH
                 INPUT READ FROM UNIT 13
 ACCELERATION METHOD                    (IACL) =         1
 NODE ORDERING FLAG                   (NORDER) =         0
 LEVEL OF FILL                         (LEVEL) =         7
 MAXIMUM NUMBER OF ORTHOGONALIZATIONS  (NORTH) =         7
 INDEX FOR USING REDUCED SYSTEM      (IREDSYS) =         1
 RESID. REDUCTION CONVERGE CRITERION  (RRCTOL) =  0.000000E+00
 INDEX FOR USING DROP TOLERANCE     (IDROPTOL) =         1
 DROP TOLERANCE VALUE                  (EPSRN) =  0.500000E-02
 CONVERGENCE CRITERIA OF           (HCLOSEXMD) =  0.100000E-03
 MAX. NUMBER OF LINEAR ITERATIONS  (MXITERXMD) =        50


 UPW1 -- UPSTREAM WEIGHTING FLOW PACKAGE, VERSION 1.1.4, 4/01/2018
         INPUT READ FROM UNIT  7

 #Layer-Property Flow Package input for test simulation 2
 CELL-BY-CELL FLOWS WILL BE SAVED ON UNIT  102
 No named parameters

   LAYER FLAGS:
 LAYER       LAYTYP          LAYAVG    CHANI           LAYVKA           LAYWET
 ---------------------------------------------------------------------------
    1             1             0     1.000E+00             0             0

   INTERPRETATION OF LAYER FLAGS:
                        INTERBLOCK     HORIZONTAL    DATA IN
         LAYER TYPE   TRANSMISSIVITY   ANISOTROPY   ARRAY VKA   WETTABILITY
 LAYER   (LAYTYP)        (LAYAVG)      (CHANI)     (LAYVKA)       (LAYWET)
 ---------------------------------------------------------------------------
    1   CONVERTIBLE      HARMONIC     1.000E+00    VERTICAL K  NON-WETTABLE



              HYD. COND. ALONG ROWS FOR LAYER   1
 READING ON UNIT    7 WITH FORMAT: (10F5.0)            

            1           2           3           4           5           6           7           8           9          10
 ........................................................................................................................
   1   2.0000E-03  2.0000E-03   0.000       0.000       0.000       0.000       0.000       0.000       0.000       0.000    
   2   4.0000E-04  2.0000E-03  2.0000E-03   0.000       0.000      4.0000E-04  4.0000E-04  4.0000E-04   0.000       0.000    
   3    0.000      4.0000E-04  2.0000E-03  2.0000E-03  4.0000E-04  4.0000E-04  4.0000E-04  4.0000E-04   0.000       0.000    
   4   4.0000E-04  4.0000E-04  4.0000E-04  2.0000E-03  2.0000E-03  2.0000E-03  4.0000E-04  4.0000E-04  4.0000E-04   0.000    
   5   4.0000E-04  4.0000E-04  4.0000E-04  2.0000E-03  2.0000E-03  2.0000E-03  2.0000E-03  2.0000E-03  2.0000E-03  2.0000E-03
   6   4.0000E-04  4.0000E-04  4.0000E-04  2.0000E-03  2.0000E-03  2.0000E-03  2.0000E-03  2.0000E-03  4.0000E-04  4.0000E-04
   7   4.0000E-04  4.0000E-04  4.0000E-04  2.0000E-03  2.0000E-03  2.0000E-03  2.0000E-03  2.0000E-03  4.0000E-04   0.000    
   8    0.000      4.0000E-04  4.0000E-04  2.0000E-03  2.0000E-03  2.0000E-03  2.0000E-03  4.0000E-04  4.0000E-04   0.000    
   9    0.000      4.0000E-04  4.0000E-04  2.0000E-03  2.0000E-03  2.0000E-03  2.0000E-03  4.0000E-04  4.0000E-04   0.000    
  10    0.000      4.0000E-04  4.0000E-04  2.0000E-03  2.0000E-03  2.0000E-03  2.0000E-03  4.0000E-04  4.0000E-04  4.0000E-04
  11    0.000      4.0000E-04  4.0000E-04  2.0000E-03  2.0000E-03  2.0000E-03  2.0000E-03  4.0000E-04  4.0000E-04   0.000    
  12   4.0000E-04  4.0000E-04  2.0000E-03  2.0000E-03  2.0000E-03  2.0000E-03  2.0000E-03  4.0000E-04  4.0000E-04   0.000    
  13   2.0000E-03  2.0000E-03  2.0000E-03  2.0000E-03  2.0000E-03  2.0000E-03  2.0000E-03  2.0000E-03  2.0000E-03   0.000    
  14    0.000      4.0000E-04  4.0000E-04  4.0000E-04  4.0000E-04  4.0000E-04  4.0000E-04  4.0000E-04  2.0000E-03   0.000    
  15    0.000       0.000      4.0000E-04  4.0000E-04  4.0000E-04  4.0000E-04   0.000       0.000       0.000       0.000    

      VERTICAL HYD. COND. =  1.000000E-06 FOR LAYER   1

         SPECIFIC STORAGE =  1.000000E-06 FOR LAYER   1



                     SPECIFIC YIELD FOR LAYER   1
 READING ON UNIT    7 WITH FORMAT: (10F5.0)            

            1           2           3           4           5           6           7           8           9          10
 ........................................................................................................................
   1   0.2000      0.2000       0.000       0.000       0.000       0.000       0.000       0.000       0.000       0.000    
   2   0.1000      0.2000      0.2000       0.000       0.000      0.1000      0.1000      0.1000       0.000       0.000    
   3    0.000      0.1000      0.2000      0.2000      0.1000      0.1000      0.1000      0.1000       0.000       0.000    
   4   0.1000      0.1000      0.1000      0.2000      0.2000      0.2000      0.1000      0.1000      0.1000       0.000    
   5   0.1000      0.1000      0.1000      0.2000      0.2000      0.2000      0.2000      0.2000      0.2000      0.2000    
   6   0.1000      0.1000      0.1000      0.2000      0.2000      0.2000      0.2000      0.2000      0.1000      0.1000    
   7   0.1000      0.1000      0.1000      0.2000      0.2000      0.2000      0.2000      0.2000      0.1000       0.000    
   8    0.000      0.1000      0.1000      0.2000      0.2000      0.2000      0.2000      0.1000      0.1000       0.000    
   9    0.000      0.1000      0.1000      0.2000      0.2000      0.2000      0.2000      0.1000      0.1000       0.000    
  10    0.000      0.1000      0.1000      0.2000      0.2000      0.2000      0.2000      0.1000      0.1000      0.1000    
  11    0.000      0.1000      0.1000      0.2000      0.2000      0.2000      0.2000      0.1000      0.1000       0.000    
  12   0.1000      0.1000      0.2000      0.2000      0.2000      0.2000      0.2000      0.1000      0.1000       0.000    
  13   0.2000      0.2000      0.2000      0.2000      0.2000      0.2000      0.2000      0.2000      0.2000       0.000    
  14    0.000      0.1000      0.1000      0.1000      0.1000      0.1000      0.1000      0.1000      0.2000       0.000    
  15    0.000       0.000      0.1000      0.1000      0.1000      0.1000       0.000       0.000       0.000       0.000    

 GHB -- GENERAL-HEAD BOUNDARY PACKAGE, VERSION 7, 5/2/2005
         INPUT READ FROM UNIT   17
 No named parameters
 MAXIMUM OF      2 ACTIVE GHB CELLS AT ONE TIME
 CELL-BY-CELL FLOWS WILL BE PRINTED WHEN ICBCFL NOT 0


     0 GHB parameters

 SFR7 -- STREAMFLOW ROUTING PACKAGE, VERSION 1.0.5, 2012-04-05
         INPUT READ FROM UNIT  15
 #SFR2 Package input for Testing supplimental pumping and irrigation
 No named parameters

 PROCESSING SFR2 OPTIONS
 
          2 Specified inflow files will be read with a maximum of       1446 row entries per file
 
Stream loss will be calculated as a factor of the streambed hydraulic conductivity. Multiplication factor is equal to     0.1000000015E+00

 END PROCESSING SFR2 OPTIONS
 


 NUMBER OF STREAM REACHES IS   38

 NUMBER OF STREAM SEGMENTS IS    9

 NUMBER OF STREAM PARAMETERS IS    0

 NUMBER OF STREAM SEGMENTS DEFINED USING PARAMETERS IS              0

 MAXIMUM ERROR FOR STREAM LEAKAGE RATES IS  1.00E-06

 CONSTANT FOR MANNINGS EQUATION IS  1.4860E+00



 STREAM OUTPUT WILL BE WRITTEN TO FILE ON UNIT   81


   STREAM NETWORK DESCRIPTION: 

   LAYER    ROW    COL   SEGMENT   REACH     LENGTH
                          NUMBER   NUMBER    IN CELL        
   --------------------------------------------------
      1      1      1       1        1    4.5000E+03
      1      2      2       1        2    7.0000E+03
      1      3      3       1        3    6.0000E+03
      1      3      4       1        4    5.5500E+03
      1      4      5       2        1    6.5000E+03
      1      5      6       2        2    5.0000E+03
      1      6      6       2        3    5.0000E+03
      1      7      6       2        4    5.0000E+03
      1      8      6       2        5    5.0000E+03
      1      3      5       3        1    5.0000E+03
      1      3      6       3        2    5.0000E+03
      1      3      7       3        3    4.5000E+03
      1      4      8       3        4    6.0000E+03
      1      5      8       3        5    5.0000E+03
      1      6      8       3        6    2.0000E+03
      1      5     10       4        1    2.5000E+03
      1      5      9       4        2    5.0000E+03
      1      6      8       4        3    3.5000E+03
      1      6      8       5        1    4.0000E+03
      1      7      7       5        2    5.0000E+03
      1      8      7       5        3    3.5000E+03
      1      8      6       5        4    2.5000E+03
      1      9      6       6        1    5.0000E+03
      1     10      7       6        2    5.0000E+03
      1     11      7       6        3    5.0000E+03
      1     12      7       6        4    5.0000E+03
      1     13      7       6        5    2.0000E+03
      1     14      9       7        1    5.0000E+03
      1     13      8       7        2    5.5000E+03
      1     13      7       7        3    5.0000E+03
      1     13      6       8        1    5.0000E+03
      1     13      5       8        2    5.0000E+03
      1     13      4       8        3    5.0000E+03
      1     13      3       8        4    5.0000E+03
      1     13      2       8        5    5.0000E+03
      1     13      1       8        6    3.0000E+03
      1      8      6       9        1    3.0000E+03
      1      8      5       9        2    3.0000E+03




 UZF1 -- UNSATURATED FLOW PACKAGE, VERSION 1.5, 09/10/2019
         INPUT READ FROM UNIT 19
 #UZF Package input for test simulation 2
 No named parameters

 PROCESSING UZF OPTIONS
 
 
 INITIAL WATER CONTENT (THTI) WILL BE 
READ FOR THE FIRST SS OR TR STRESS PERIOD
 
 
 RESIDUAL WATER CONTENT (THTR) WILL BE 
READ AND USED FOR THE FIRST TRANSIENT STRESS 
PERIOD
 
 
AIR ENTRY PRESSURE AND ROOT PRESSURE WILL BE 
SPECIFIED BY USER AND UZ ET WILL BE SIMULATED 
AS PRESSURE-HEAD DEPENDENT
 
 
INFILTRATION WILL BE REJECTED USING 
LAND SURFACE K
 
 
HYDRAULIC CONDUCTIVITY OF LAND SURFACE 
WILL BE READ
 

 END PROCESSING UZF OPTIONS



            AREAL EXTENT OF UZ FLOW
 READING ON UNIT   19 WITH FORMAT: (20I4)              

                1           2           3           4           5           6           7           8           9          10
 ............................................................................................................................
   1            1           1           0           0           0           0           0           0           0           0
   2            1           1           1           0           0           1           1           1           0           0
   3            0           1           1           1           1           1           1           1           0           0
   4            1           1           1           1           1           1           1           1           1           0
   5            1           1           1           1           1           1           1           1           1           1
   6            1           1           1           1           1           1           1           1           1           1
   7            1           1           1           1           1           1           1           1           1           0
   8            0           1           1           1           1           1           1           1           1           0
   9            0           1           1           1           1           1           1           1           1           0
  10            0           1           1           1           1           1           1           1           1           1
  11            0           1           1           1           1           1           1           1           1           0
  12            1           1           1           1           1           1           1           1           1           0
  13            1           1           1           1           1           1           1           1           1           0
  14            0           1           1           1           1           1           1           1           1           0
  15            0           0           1           1           1           1           0           0           0           0
 OPTION 1 -- RECHARGE IN UZF TO TOP LAYER ONLY 



            ROUTING OVERLAND RUNOFF
 READING ON UNIT   19 WITH FORMAT: (20I4)              

                1           2           3           4           5           6           7           8           9          10
 ............................................................................................................................
   1            1           1           0           0           0           0           0           0           0           0
   2            1           1           1           0           0           3           3           3           0           0
   3            0           1           1           1           3           3           3           3           0           0
   4            8           8           2           2           2           2           2           3           3           0
   5            8           8           8           8           2           2           2           3           4           4
   6            8           8           8           8           8           2           2           4           4           4
   7            8           8           8           8           8           2           5           5           5           0
   8            0           8           8           8           8           2           5           5           5           0
   9            0           8           8           8           8           6           6           6           6           0
  10            0           8           8           8           8           6           6           6           6           6
  11            0           8           8           8           8           8           6           6           7           0
  12            8           8           8           8           8           8           6           7           7           0
  13            8           8           8           8           8           8           7           7           7           0
  14            0           8           8           8           8           8           7           7           7           0
  15            0           0           8           8           8           8           0           0           0           0



               SATURATED VERTICAL K
 READING ON UNIT   19 WITH FORMAT: (10F4.0)            

            1           2           3           4           5           6           7           8           9          10
 ........................................................................................................................
   1   4.6000E-05  4.6000E-05   0.000       0.000       0.000       0.000       0.000       0.000       0.000       0.000    
   2   4.6000E-05  4.6000E-05  4.6000E-05   0.000       0.000      4.6000E-05  4.6000E-05  4.6000E-05   0.000       0.000    
   3    0.000      4.6000E-05  4.6000E-05  4.6000E-05  4.6000E-05  4.6000E-05  4.6000E-05  4.6000E-05   0.000       0.000    
   4   4.6000E-05  4.6000E-05  4.6000E-05  4.6000E-05  4.6000E-05  4.6000E-05  4.6000E-05  4.6000E-05  4.6000E-05   0.000    
   5   4.6000E-05  4.6000E-05  4.6000E-05  4.6000E-05  4.6000E-05  4.6000E-05  4.6000E-05  4.6000E-05  4.6000E-05  4.6000E-05
   6   4.6000E-05  4.6000E-05  4.6000E-05  4.6000E-05  4.6000E-05  4.6000E-05  4.6000E-05  4.6000E-05  4.6000E-05  4.6000E-05
   7   4.6000E-05  4.6000E-05  4.6000E-05  4.6000E-05  4.6000E-05  4.6000E-05  4.6000E-05  4.6000E-05  4.6000E-05   0.000    
   8    0.000      4.6000E-05  4.6000E-05  4.6000E-05  4.6000E-05  4.6000E-05  4.6000E-05  4.6000E-05  4.6000E-05   0.000    
   9    0.000      4.6000E-05  4.6000E-05  4.6000E-05  4.6000E-05  4.6000E-05  4.6000E-05  4.6000E-05  4.6000E-05   0.000    
  10    0.000      4.6000E-05  4.6000E-05  4.6000E-05  4.6000E-05  4.6000E-05  4.6000E-05  4.6000E-05  4.6000E-05  4.6000E-05
  11    0.000      4.6000E-05  4.6000E-05  4.6000E-05  4.6000E-05  4.6000E-05  4.6000E-05  4.6000E-05  4.6000E-05   0.000    
  12   4.6000E-05  4.6000E-05  4.6000E-05  4.6000E-05  4.6000E-05  4.6000E-05  4.6000E-05  4.6000E-05  4.6000E-05   0.000    
  13   4.6000E-05  4.6000E-05  4.6000E-05  4.6000E-05  4.6000E-05  4.6000E-05  4.6000E-05  4.6000E-05  4.6000E-05   0.000    
  14    0.000      4.6000E-05  4.6000E-05  4.6000E-05  4.6000E-05  4.6000E-05  4.6000E-05  4.6000E-05  4.6000E-05   0.000    
  15    0.000       0.000      4.6000E-05  4.6000E-05  4.6000E-05  4.6000E-05   0.000       0.000       0.000       0.000    



            LAND SURFACE VERTICAL K
 READING ON UNIT   19 WITH FORMAT: (10F4.0)            

            1           2           3           4           5           6           7           8           9          10
 ........................................................................................................................
   1   1.0000E-05  1.0000E-05   0.000       0.000       0.000       0.000       0.000       0.000       0.000       0.000    
   2   1.0000E-05  1.0000E-05  1.0000E-05   0.000       0.000      1.0000E-05  1.0000E-05  1.0000E-05   0.000       0.000    
   3    0.000      1.0000E-05  1.0000E-05  1.0000E-05  1.0000E-05  1.0000E-05  1.0000E-05  1.0000E-05   0.000       0.000    
   4   1.0000E-05  1.0000E-05  1.0000E-05  1.0000E-05  1.0000E-05  1.0000E-05  1.0000E-05  1.0000E-05  1.0000E-05   0.000    
   5   1.0000E-05  1.0000E-05  1.0000E-05  1.0000E-05  1.0000E-05  1.0000E-05  1.0000E-05  1.0000E-05  1.0000E-05  1.0000E-05
   6   1.0000E-05  1.0000E-05  1.0000E-05  1.0000E-05  1.0000E-05  1.0000E-05  1.0000E-05  1.0000E-05  1.0000E-05  1.0000E-05
   7   1.0000E-05  1.0000E-05  1.0000E-05  1.0000E-05  1.0000E-05  1.0000E-05  1.0000E-05  1.0000E-05  1.0000E-05   0.000    
   8    0.000      1.0000E-05  1.0000E-05  1.0000E-05  1.0000E-05  1.0000E-05  1.0000E-05  1.0000E-05  1.0000E-05   0.000    
   9    0.000      1.0000E-05  1.0000E-05  1.0000E-05  1.0000E-05  1.0000E-05  1.0000E-05  1.0000E-05  1.0000E-05   0.000    
  10    0.000      1.0000E-05  1.0000E-05  1.0000E-05  1.0000E-05  1.0000E-05  1.0000E-05  1.0000E-05  1.0000E-05  1.0000E-05
  11    0.000      1.0000E-05  1.0000E-05  1.0000E-05  1.0000E-05  1.0000E-05  1.0000E-05  1.0000E-05  1.0000E-05   0.000    
  12   1.0000E-05  1.0000E-05  1.0000E-05  1.0000E-05  1.0000E-05  1.0000E-05  1.0000E-05  1.0000E-05  1.0000E-05   0.000    
  13   1.0000E-05  1.0000E-05  1.0000E-05  1.0000E-05  1.0000E-05  1.0000E-05  1.0000E-05  1.0000E-05  1.0000E-05   0.000    
  14    0.000      1.0000E-05  1.0000E-05  1.0000E-05  1.0000E-05  1.0000E-05  1.0000E-05  1.0000E-05  1.0000E-05   0.000    
  15    0.000       0.000      1.0000E-05  1.0000E-05  1.0000E-05  1.0000E-05   0.000       0.000       0.000       0.000    

     BROOKS-COREY EPSILON =   7.50000    

  SATURATED WATER CONTENT =  0.380000    

   RESIDUAL WATER CONTENT =  0.200000    

    INITIAL WATER CONTENT =  0.200000    

UNSATURATED FLOW RESULTS WILL BE PRINTED TO SEPARATE FILES FOR SELECTED MODEL CELLS, AND TIME STEPS AS DEFINED BY OUTPUT CONTROL PACKAGE 

SELECTED MODEL CELLS ARE: 
 ROW NUMBER  COLUMN NUMBER  FORTRAN UNIT NUMBER  OUTPUT OPTION


       6             4                 65                 1
       6             5                 66                 2
       8             4                 67                 3
       0             0                 68                 4



   9 GAGING STATIONS WERE SPECIFIED.
     (Lakes are identified by a negative value of the Lake Number)
     RECORDS WILL BE WRITTEN TO SEPARATE OUTPUT FILES REPRESENTED BY FOLLOWING UNIT NUMBERS:

 Stream Gages:
  GAGE #   SEGMENT   REACH   UNIT   OUTTYPE
       1       1       4      83       1
       2       2       5      84       1
       3       3       5      85       1
       4       4       3      86       1
       5       5       4      87       4
       6       6       5      88       4
       7       7       3      89       4
       8       8       6      90       4
       9       9       1      91       5





 AG -- AG PACKAGE FOR NWT VERSION 1.1.3,  8/01/2017 INPUT READ FROM UNIT   57
 # AG options

 PROCESSING AG OPTIONS
 
 AGRICULTURAL DEMANDS WILL BE CALCULATED USING ET DEFICIT
 
 
 OPTION TO APPLY SURFACE WATER AS IRRIGATION IS ACTIVE. DIVERTED SURFACE WATER WILL BE APPLIED TO          1 CELLS/RHUS.
 
 
 OPTION TO PUMP SUPPLEMENTARY WATER FOR SURFACE DIVERSION SHORTFALL IS ACTIVATED.  A TOTAL OF             6 SUPPLEMENTAL WELLS ARE ACTIVE
 
 
 OPTION TO APPLY PUMPED WATER AS IRRIGATION IS ACTIVE. PUMPED IRRIGATION WATER WILL BE APPLIED TO          6 CELLS/RHUS.
 
 
 THE MAXIMUM NUMBER OF WELLS FOR SUPPLEMENTING DIVERSIONS OR APPLYING IRRIGATION IS          6 WELLS.
 
 
  UNFORMATTED CELL BY CELL RATES FOR SUP AND IRR WELLS WILL BE SAVED TO FILE UNIT NUMBER         -2
 
 
  UNFORMATTED CELL BY CELL RATES FOR SUP AND IRR WELLS WILL BE SAVED TO FILE UNIT NUMBER         -2
 
 
  UNFORMATTED CELL BY CELL RATES FOR SUP AND IRR WELLS WILL BE SAVED TO FILE UNIT NUMBER         -2
 
 
  UNFORMATTED CELL BY CELL RATES FOR SUP AND IRR WELLS WILL BE SAVED TO FILE UNIT NUMBER         -2
 
 
  GROUND WATER IRRIGATION, POTENTIAL AND ACTUAL ET WILL BE SAVED TO TIMES SERIES OUTPUT FILES.
 
 
  SURFACE WATER IRRIGATION, POTENTIAL AND ACTUAL ET WILL BE SAVED TO TIMES SERIES OUTPUT FILES.
 
 
  SURFACE WATER IRRIGATION, POTENTIAL AND ACTUAL ET WILL BE SAVED TO TIMES SERIES OUTPUT FILES.
 

 END PROCESSING AG OPTIONS
 # AG time series

 PROCESSING TIME SERIES

 FINISHED READING TIME SERIES
 A total number of          1 AG output time series files were activated for SURFACE WATER 
 A total number of          1 AG output time series files were activated for GROUNDWATER 
 A total number of          1 AG output time series files were activated for SURFACE WATER ET
 A total number of          0 AG output time series files were activated for GROUNDWATER ET
1
                            STRESS PERIOD NO.    1, LENGTH =   86400.00    
                            -----------------------------------------------

                              NUMBER OF TIME STEPS =     1

                               MULTIPLIER FOR DELT =     1.000

                            INITIAL TIME STEP SIZE =   86400.00    

 BOUND. NO. LAYER   ROW   COL     STAGE      CONDUCTANCE         
 ----------------------------------------------------------------
      1      1     13      1       988.0          0.3800E-01
      2      1     14      9       1045.          0.3800E-01

      2 GHB CELLS



 CLASSIFICATION & COUNT OF STREAM SEGMENTS BASED ON SOURCE OF INFLOW:

                HEADWATER     DIVERSION     RECEIVES TRIBUTARY FLOW
                ---------     ---------     -----------------------
                     3              2               4



                    INPUT DATA FOR EACH STREAM SEGMENT
 ---------------------------------------------------------------------------------------------

 SEGMENT    SEG.     INFLOW   OVERLAND   STREAM    STREAM   ICALC  OUTFLOW  DIVERSION PRIORITY
    NO.    LENGTH     RATE     RUNOFF      ET       PPT.    METH.  TO SEG.  FROM SEG.    NO.

      1  2.305E+04 2.500E+01 0.000E+00 0.000E+00 0.000E+00    4        2        0        0
      2  2.650E+04 0.000E+00 0.000E+00 0.000E+00 0.000E+00    1        6        0        0
      3  2.750E+04 2.000E+00 0.000E+00 0.000E+00 0.000E+00    0        5        1        0
      4  1.100E+04 1.000E+01 0.000E+00 0.000E+00 0.000E+00    1        5        0        0
      5  1.500E+04 0.000E+00 0.000E+00 0.000E+00 0.000E+00    3        6        0        0
      6  2.200E+04 0.000E+00 0.000E+00 0.000E+00 0.000E+00    1        8        0        0
      7  1.550E+04 1.500E+02 0.000E+00 0.000E+00 0.000E+00    2        8        0        0
      8  2.800E+04 0.000E+00 0.000E+00 0.000E+00 0.000E+00    2        0        0        0
      9  6.000E+03 0.000E+00 0.000E+00 0.000E+00 0.000E+00    1        0        2        0


         STREAMBED PROPERTIES AND STREAM DIMENSIONS

 SEGMENT     BED HYD. COND.      BED THICKNESS     ELEV.-TOP OF BED     WIDTH OF STREAM     DEPTH OF STREAM    STREAM ROUGHNESS
    No.     UPPER     LOWER     UPPER     LOWER     UPPER     LOWER     UPPER     LOWER     UPPER     LOWER   CHANNEL      BANK

     1  3.000E-05 3.000E-05 3.000E+00 3.000E+00 1.095E+03 1.075E+03
     2  3.000E-05 3.000E-05 3.000E+00 3.000E+00 1.075E+03 1.050E+03 1.200E+01 1.200E+01                     3.000E-02
     3  3.000E-05 3.000E-05 2.000E+00 2.000E+00 1.075E+03 1.060E+03 1.000E+01 6.000E+00 2.000E+00 1.000E+00
     4  3.000E-05 3.000E-05 3.000E+00 3.000E+00 1.080E+03 1.060E+03 1.000E+01 1.000E+01                     3.000E-02
     5  3.000E-05 3.000E-05 3.000E+00 3.000E+00 1.060E+03 1.045E+03
     6  3.000E-05 3.000E-05 3.000E+00 3.000E+00 1.045E+03 1.025E+03 1.200E+01 1.200E+01                     3.000E-02
     7  6.000E-05 6.000E-05 3.000E+00 3.000E+00 1.040E+03 1.025E+03                                         2.500E-02 4.500E-02
     8  6.000E-05 6.000E-05 3.000E+00 3.000E+00 1.025E+03 9.900E+02                                         2.500E-02 4.500E-02
     9  0.000E+00 0.000E+00 3.000E+00 3.000E+00 1.079E+03 1.078E+03 4.000E+00 4.000E+00                     3.000E-02

  EIGHT POINT CROSS-SECTION DATA FOR SEGMENTS WITH ICALC = 2
    X VALUES X VALUES START FROM LEFT SIDE LOOKING DOWNSTREAM

     SEGMENT NO.        X1        X2        X3        X4        X5        X6        X7        X8
            7      0.000E+00 1.000E+01 8.000E+01 1.000E+02 1.500E+02 1.700E+02 2.400E+02 2.500E+02
            8      0.000E+00 1.000E+01 8.000E+01 1.000E+02 1.500E+02 1.700E+02 2.400E+02 2.500E+02

    Z VALUES ARE RELATIVE TO STREAMBED ELEVATION

     SEGMENT NO.          Z1        Z2        Z3        Z4        Z5        Z6        Z7        Z8
            7      2.000E+01 1.300E+01 1.000E+01 2.000E+00 0.000E+00 1.000E+01 1.300E+01 2.000E+01
            8      2.500E+01 1.700E+01 1.300E+01 4.000E+00 0.000E+00 1.000E+01 1.600E+01 2.000E+01

 STREAMFLOW RELATION WITH DEPTH IS BASED ON EQUATION Q = CDPTH*(DEPTH)**FDPTH
 STREAMFLOW RELATION WITH WIDTH IS BASED ON EQUATION Q = AWDTH*(WIDTH)**BWDTH

 SEGMENT NO.      CDPTH     FDPTH    AWDTH     BWDTH

          5 3.000E-01 3.500E-01 3.800E+00 6.000E-01

 STREAMFLOW RELATION WITH DEPTH AND WIDTH IS BASED ON TABULATED VALUES

  SEGMENT NO.   STREAMFLOW       DEPTH       WIDTH

          1     5.0000E-01   2.5000E-01   3.0000E+00
          1     1.0000E+00   4.0000E-01   3.5000E+00
          1     2.0000E+00   5.5000E-01   4.2000E+00
          1     4.0000E+00   7.0000E-01   5.3000E+00
          1     7.0000E+00   8.0000E-01   7.0000E+00
          1     1.0000E+01   9.0000E-01   8.5000E+00
          1     2.0000E+01   1.1000E+00   1.2000E+01
          1     3.0000E+01   1.2500E+00   1.4000E+01
          1     5.0000E+01   1.4000E+00   1.7000E+01
          1     7.5000E+01   1.7000E+00   2.0000E+01
          1     1.0000E+02   1.8000E+00   2.2000E+01



TABULAR INFLOWS WERE READ FOR SEGMENT      1
FROM FILE UNIT NUMBER     55

          TIMES                    INFLOWS
         0.0000000000E+00     0.3750000000E+01
         0.8640000000E+05     0.1650000000E+02
         0.2760000000E+07     0.3150000000E+02
         0.5270000000E+07     0.5775000000E+02
         0.7950000000E+07     0.2100000000E+02
         0.1050000000E+08     0.7425000000E+02
         0.1320000000E+08     0.6225000000E+02
         0.1580000000E+08     0.5625000000E+02
         0.1850000000E+08     0.4575000000E+02
         0.2120000000E+08     0.3525000000E+02
         0.2380000000E+08     0.2625000000E+02
         0.2640000000E+08     0.1950000000E+02
         0.2900000000E+08     0.1725000000E+02
         0.3170000000E+08     0.1425000000E+02
         0.3440000000E+08     0.1575000000E+02
         0.3680000000E+08     0.7350000000E+02
         0.3950000000E+08     0.5625000000E+02
         0.4210000000E+08     0.4725000000E+02
         0.4480000000E+08     0.4350000000E+02
         0.4730000000E+08     0.4050000000E+02
         0.5000000000E+08     0.2775000000E+02
         0.5270000000E+08     0.1875000000E+02
         0.5530000000E+08     0.1650000000E+02
         0.5800000000E+08     0.1575000000E+02
         0.6060000000E+08     0.1500000000E+02
         0.6320000000E+08     0.1425000000E+02
         0.6330000000E+08     0.1650000000E+02
         0.6600000000E+08     0.3150000000E+02
         0.6850000000E+08     0.5775000000E+02
         0.7120000000E+08     0.2100000000E+02
         0.7370000000E+08     0.7425000000E+02
         0.7640000000E+08     0.6225000000E+02
         0.7900000000E+08     0.5625000000E+02
         0.8170000000E+08     0.4575000000E+02
         0.8440000000E+08     0.3525000000E+02
         0.8700000000E+08     0.2625000000E+02
         0.8960000000E+08     0.1950000000E+02
         0.9220000000E+08     0.1725000000E+02
         0.9490000000E+08     0.1425000000E+02
         0.9760000000E+08     0.1575000000E+02
         0.1000000000E+09     0.7350000000E+02
         0.1030000000E+09     0.5625000000E+02
         0.1050000000E+09     0.4725000000E+02
         0.1080000000E+09     0.4350000000E+02
         0.1110000000E+09     0.4050000000E+02
         0.1130000000E+09     0.2775000000E+02
         0.1160000000E+09     0.1875000000E+02
         0.1190000000E+09     0.1650000000E+02
         0.1210000000E+09     0.1575000000E+02
         0.1240000000E+09     0.1500000000E+02
         0.1260000000E+09     0.1425000000E+02
TABULAR INFLOWS WERE READ FOR SEGMENT      9
FROM FILE UNIT NUMBER     56

          TIMES                    INFLOWS
         0.0000000000E+00     0.1000000000E+03
         0.8640000000E+05     0.1000000000E+03
         0.1730000000E+06     0.1000000000E+03
         0.2590000000E+06     0.1000000000E+03
         0.3460000000E+06     0.1000000000E+03
         0.4320000000E+06     0.1000000000E+03
         0.5180000000E+06     0.1000000000E+03
         0.6050000000E+06     0.1000000000E+03
         0.6910000000E+06     0.1000000000E+03
         0.7780000000E+06     0.1000000000E+03
         0.8640000000E+06     0.1000000000E+03
         0.9500000000E+06     0.1000000000E+03
         0.1040000000E+07     0.1000000000E+03
         0.1120000000E+07     0.1000000000E+03
         0.1210000000E+07     0.1000000000E+03
         0.1300000000E+07     0.1000000000E+03
         0.1380000000E+07     0.1000000000E+03
         0.1470000000E+07     0.1000000000E+03
         0.1560000000E+07     0.1000000000E+03
         0.1640000000E+07     0.1000000000E+03
         0.1730000000E+07     0.1000000000E+03
         0.1810000000E+07     0.1000000000E+03
         0.1900000000E+07     0.1000000000E+03
         0.1990000000E+07     0.1000000000E+03
         0.2070000000E+07     0.1000000000E+03
         0.2160000000E+07     0.1000000000E+03
         0.2250000000E+07     0.1000000000E+03
         0.2330000000E+07     0.1000000000E+03
         0.2420000000E+07     0.1000000000E+03
         0.2510000000E+07     0.1000000000E+03
         0.2590000000E+07     0.1000000000E+03
         0.2680000000E+07     0.1000000000E+03
         0.2760000000E+07     0.1000000000E+03
         0.2850000000E+07     0.1000000000E+03
         0.2940000000E+07     0.1000000000E+03
         0.3020000000E+07     0.1000000000E+03
         0.3110000000E+07     0.1000000000E+03
         0.3200000000E+07     0.1000000000E+03
         0.3280000000E+07     0.1000000000E+03
         0.3370000000E+07     0.1000000000E+03
         0.3460000000E+07     0.1000000000E+03
         0.3540000000E+07     0.1000000000E+03
         0.3630000000E+07     0.1000000000E+03
         0.3720000000E+07     0.1000000000E+03
         0.3800000000E+07     0.1000000000E+03
         0.3890000000E+07     0.1000000000E+03
         0.3970000000E+07     0.1000000000E+03
         0.4060000000E+07     0.1000000000E+03
         0.4150000000E+07     0.1000000000E+03
         0.4230000000E+07     0.1000000000E+03
         0.4320000000E+07     0.1000000000E+03
         0.4410000000E+07     0.1000000000E+03
         0.4490000000E+07     0.1000000000E+03
         0.4580000000E+07     0.1000000000E+03
         0.4670000000E+07     0.1000000000E+03
         0.4750000000E+07     0.1000000000E+03
         0.4840000000E+07     0.1000000000E+03
         0.4920000000E+07     0.1000000000E+03
         0.5010000000E+07     0.1000000000E+03
         0.5100000000E+07     0.1000000000E+03
         0.5180000000E+07     0.1000000000E+03
         0.5270000000E+07     0.1000000000E+03
         0.5360000000E+07     0.1000000000E+03
         0.5440000000E+07     0.1000000000E+03
         0.5530000000E+07     0.1000000000E+03
         0.5620000000E+07     0.1000000000E+03
         0.5700000000E+07     0.1000000000E+03
         0.5790000000E+07     0.1000000000E+03
         0.5880000000E+07     0.1000000000E+03
         0.5960000000E+07     0.1000000000E+03
         0.6050000000E+07     0.1000000000E+03
         0.6130000000E+07     0.1000000000E+03
         0.6220000000E+07     0.1000000000E+03
         0.6310000000E+07     0.1000000000E+03
         0.6390000000E+07     0.1000000000E+03
         0.6480000000E+07     0.1000000000E+03
         0.6570000000E+07     0.1000000000E+03
         0.6650000000E+07     0.1000000000E+03
         0.6740000000E+07     0.1000000000E+03
         0.6830000000E+07     0.1000000000E+03
         0.6910000000E+07     0.1000000000E+03
         0.7000000000E+07     0.1000000000E+03
         0.7080000000E+07     0.1000000000E+03
         0.7170000000E+07     0.1000000000E+03
         0.7260000000E+07     0.1000000000E+03
         0.7340000000E+07     0.1000000000E+03
         0.7430000000E+07     0.1000000000E+03
         0.7520000000E+07     0.1000000000E+03
         0.7600000000E+07     0.1000000000E+03
         0.7690000000E+07     0.1000000000E+03
         0.7780000000E+07     0.1000000000E+03
         0.7860000000E+07     0.1000000000E+03
         0.7950000000E+07     0.1000000000E+03
         0.8040000000E+07     0.1000000000E+03
         0.8120000000E+07     0.1000000000E+03
         0.8210000000E+07     0.1000000000E+03
         0.8290000000E+07     0.1000000000E+03
         0.8380000000E+07     0.1000000000E+03
         0.8470000000E+07     0.1000000000E+03
         0.8550000000E+07     0.1000000000E+03
         0.8640000000E+07     0.1000000000E+03
         0.8730000000E+07     0.1000000000E+03
         0.8810000000E+07     0.1000000000E+03
         0.8900000000E+07     0.1000000000E+03
         0.8990000000E+07     0.1000000000E+03
         0.9070000000E+07     0.1000000000E+03
         0.9160000000E+07     0.1000000000E+03
         0.9240000000E+07     0.1000000000E+03
         0.9330000000E+07     0.1000000000E+03
         0.9420000000E+07     0.1000000000E+03
         0.9500000000E+07     0.1000000000E+03
         0.9590000000E+07     0.1000000000E+03
         0.9680000000E+07     0.1000000000E+03
         0.9760000000E+07     0.1000000000E+03
         0.9850000000E+07     0.1000000000E+03
         0.9940000000E+07     0.1000000000E+03
         0.1000000000E+08     0.1000000000E+03
         0.1010000000E+08     0.1000000000E+03
         0.1020000000E+08     0.1000000000E+03
         0.1030000000E+08     0.1000000000E+03
         0.1040000000E+08     0.1000000000E+03
         0.1050000000E+08     0.1000000000E+03
         0.1050000000E+08     0.1000000000E+03
         0.1060000000E+08     0.1000000000E+03
         0.1070000000E+08     0.1000000000E+03
         0.1080000000E+08     0.1000000000E+03
         0.1090000000E+08     0.1000000000E+03
         0.1100000000E+08     0.1000000000E+03
         0.1110000000E+08     0.1000000000E+03
         0.1110000000E+08     0.1000000000E+03
         0.1120000000E+08     0.1000000000E+03
         0.1130000000E+08     0.1000000000E+03
         0.1140000000E+08     0.1000000000E+03
         0.1150000000E+08     0.1000000000E+03
         0.1160000000E+08     0.1000000000E+03
         0.1170000000E+08     0.1000000000E+03
         0.1180000000E+08     0.1000000000E+03
         0.1180000000E+08     0.1000000000E+03
         0.1190000000E+08     0.1000000000E+03
         0.1200000000E+08     0.1000000000E+03
         0.1210000000E+08     0.1000000000E+03
         0.1220000000E+08     0.1000000000E+03
         0.1230000000E+08     0.1000000000E+03
         0.1240000000E+08     0.1000000000E+03
         0.1240000000E+08     0.1000000000E+03
         0.1250000000E+08     0.1000000000E+03
         0.1260000000E+08     0.1000000000E+03
         0.1270000000E+08     0.1000000000E+03
         0.1280000000E+08     0.1000000000E+03
         0.1290000000E+08     0.1000000000E+03
         0.1300000000E+08     0.1000000000E+03
         0.1300000000E+08     0.1000000000E+03
         0.1310000000E+08     0.1000000000E+03
         0.1320000000E+08     0.1000000000E+03
         0.1330000000E+08     0.1000000000E+03
         0.1340000000E+08     0.1000000000E+03
         0.1350000000E+08     0.1000000000E+03
         0.1360000000E+08     0.1000000000E+03
         0.1370000000E+08     0.1000000000E+03
         0.1370000000E+08     0.1000000000E+03
         0.1380000000E+08     0.1000000000E+03
         0.1390000000E+08     0.1000000000E+03
         0.1400000000E+08     0.1000000000E+03
         0.1410000000E+08     0.1000000000E+03
         0.1420000000E+08     0.1000000000E+03
         0.1430000000E+08     0.1000000000E+03
         0.1430000000E+08     0.1000000000E+03
         0.1440000000E+08     0.1000000000E+03
         0.1450000000E+08     0.1000000000E+03
         0.1460000000E+08     0.1000000000E+03
         0.1470000000E+08     0.1000000000E+03
         0.1480000000E+08     0.1000000000E+03
         0.1490000000E+08     0.1000000000E+03
         0.1490000000E+08     0.1000000000E+03
         0.1500000000E+08     0.1000000000E+03
         0.1510000000E+08     0.1000000000E+03
         0.1520000000E+08     0.1000000000E+03
         0.1530000000E+08     0.1000000000E+03
         0.1540000000E+08     0.1000000000E+03
         0.1550000000E+08     0.1000000000E+03
         0.1560000000E+08     0.1000000000E+03
         0.1560000000E+08     0.1000000000E+03
         0.1570000000E+08     0.1000000000E+03
         0.1580000000E+08     0.1000000000E+03
         0.1590000000E+08     0.1000000000E+03
         0.1600000000E+08     0.1000000000E+03
         0.1610000000E+08     0.1000000000E+03
         0.1620000000E+08     0.1000000000E+03
         0.1620000000E+08     0.1000000000E+03
         0.1630000000E+08     0.1000000000E+03
         0.1640000000E+08     0.1000000000E+03
         0.1650000000E+08     0.1000000000E+03
         0.1660000000E+08     0.1000000000E+03
         0.1670000000E+08     0.1000000000E+03
         0.1680000000E+08     0.1000000000E+03
         0.1680000000E+08     0.1000000000E+03
         0.1690000000E+08     0.1000000000E+03
         0.1700000000E+08     0.1000000000E+03
         0.1710000000E+08     0.1000000000E+03
         0.1720000000E+08     0.1000000000E+03
         0.1730000000E+08     0.1000000000E+03
         0.1740000000E+08     0.1000000000E+03
         0.1750000000E+08     0.1000000000E+03
         0.1750000000E+08     0.1000000000E+03
         0.1760000000E+08     0.1000000000E+03
         0.1770000000E+08     0.1000000000E+03
         0.1780000000E+08     0.1000000000E+03
         0.1790000000E+08     0.1000000000E+03
         0.1800000000E+08     0.1000000000E+03
         0.1810000000E+08     0.1000000000E+03
         0.1810000000E+08     0.1000000000E+03
         0.1820000000E+08     0.1000000000E+03
         0.1830000000E+08     0.1000000000E+03
         0.1840000000E+08     0.1000000000E+03
         0.1850000000E+08     0.1000000000E+03
         0.1860000000E+08     0.1000000000E+03
         0.1870000000E+08     0.1000000000E+03
         0.1870000000E+08     0.1000000000E+03
         0.1880000000E+08     0.1000000000E+03
         0.1890000000E+08     0.1000000000E+03
         0.1900000000E+08     0.1000000000E+03
         0.1910000000E+08     0.1000000000E+03
         0.1920000000E+08     0.1000000000E+03
         0.1930000000E+08     0.1000000000E+03
         0.1940000000E+08     0.1000000000E+03
         0.1940000000E+08     0.1000000000E+03
         0.1950000000E+08     0.1000000000E+03
         0.1960000000E+08     0.1000000000E+03
         0.1970000000E+08     0.1000000000E+03
         0.1980000000E+08     0.1000000000E+03
         0.1990000000E+08     0.1000000000E+03
         0.2000000000E+08     0.1000000000E+03
         0.2000000000E+08     0.1000000000E+03
         0.2010000000E+08     0.1000000000E+03
         0.2020000000E+08     0.1000000000E+03
         0.2030000000E+08     0.1000000000E+03
         0.2040000000E+08     0.1000000000E+03
         0.2050000000E+08     0.1000000000E+03
         0.2060000000E+08     0.1000000000E+03
         0.2070000000E+08     0.1000000000E+03
         0.2070000000E+08     0.1000000000E+03
         0.2080000000E+08     0.1000000000E+03
         0.2090000000E+08     0.1000000000E+03
         0.2100000000E+08     0.1000000000E+03
         0.2110000000E+08     0.1000000000E+03
         0.2120000000E+08     0.1000000000E+03
         0.2130000000E+08     0.1000000000E+03
         0.2130000000E+08     0.1000000000E+03
         0.2140000000E+08     0.1000000000E+03
         0.2150000000E+08     0.1000000000E+03
         0.2160000000E+08     0.1000000000E+03
         0.2170000000E+08     0.1000000000E+03
         0.2180000000E+08     0.1000000000E+03
         0.2190000000E+08     0.1000000000E+03
         0.2190000000E+08     0.1000000000E+03
         0.2200000000E+08     0.1000000000E+03
         0.2210000000E+08     0.1000000000E+03
         0.2220000000E+08     0.1000000000E+03
         0.2230000000E+08     0.1000000000E+03
         0.2240000000E+08     0.1000000000E+03
         0.2250000000E+08     0.1000000000E+03
         0.2260000000E+08     0.1000000000E+03
         0.2260000000E+08     0.1000000000E+03
         0.2270000000E+08     0.1000000000E+03
         0.2280000000E+08     0.1000000000E+03
         0.2290000000E+08     0.1000000000E+03
         0.2300000000E+08     0.1000000000E+03
         0.2310000000E+08     0.1000000000E+03
         0.2320000000E+08     0.1000000000E+03
         0.2320000000E+08     0.1000000000E+03
         0.2330000000E+08     0.1000000000E+03
         0.2340000000E+08     0.1000000000E+03
         0.2350000000E+08     0.1000000000E+03
         0.2360000000E+08     0.1000000000E+03
         0.2370000000E+08     0.1000000000E+03
         0.2380000000E+08     0.1000000000E+03
         0.2380000000E+08     0.1000000000E+03
         0.2390000000E+08     0.1000000000E+03
         0.2400000000E+08     0.1000000000E+03
         0.2410000000E+08     0.1000000000E+03
         0.2420000000E+08     0.1000000000E+03
         0.2430000000E+08     0.1000000000E+03
         0.2440000000E+08     0.1000000000E+03
         0.2450000000E+08     0.1000000000E+03
         0.2450000000E+08     0.1000000000E+03
         0.2460000000E+08     0.1000000000E+03
         0.2470000000E+08     0.1000000000E+03
         0.2480000000E+08     0.1000000000E+03
         0.2490000000E+08     0.1000000000E+03
         0.2500000000E+08     0.1000000000E+03
         0.2510000000E+08     0.1000000000E+03
         0.2510000000E+08     0.1000000000E+03
         0.2520000000E+08     0.1000000000E+03
         0.2530000000E+08     0.1000000000E+03
         0.2540000000E+08     0.1000000000E+03
         0.2550000000E+08     0.1000000000E+03
         0.2560000000E+08     0.1000000000E+03
         0.2570000000E+08     0.1000000000E+03
         0.2570000000E+08     0.1000000000E+03
         0.2580000000E+08     0.1000000000E+03
         0.2590000000E+08     0.1000000000E+03
         0.2600000000E+08     0.1000000000E+03
         0.2610000000E+08     0.1000000000E+03
         0.2620000000E+08     0.1000000000E+03
         0.2630000000E+08     0.1000000000E+03
         0.2640000000E+08     0.1000000000E+03
         0.2640000000E+08     0.1000000000E+03
         0.2650000000E+08     0.1000000000E+03
         0.2660000000E+08     0.1000000000E+03
         0.2670000000E+08     0.1000000000E+03
         0.2680000000E+08     0.1000000000E+03
         0.2690000000E+08     0.1000000000E+03
         0.2700000000E+08     0.1000000000E+03
         0.2700000000E+08     0.1000000000E+03
         0.2710000000E+08     0.1000000000E+03
         0.2720000000E+08     0.1000000000E+03
         0.2730000000E+08     0.1000000000E+03
         0.2740000000E+08     0.1000000000E+03
         0.2750000000E+08     0.1000000000E+03
         0.2760000000E+08     0.1000000000E+03
         0.2760000000E+08     0.1000000000E+03
         0.2770000000E+08     0.1000000000E+03
         0.2780000000E+08     0.1000000000E+03
         0.2790000000E+08     0.1000000000E+03
         0.2800000000E+08     0.1000000000E+03
         0.2810000000E+08     0.1000000000E+03
         0.2820000000E+08     0.1000000000E+03
         0.2830000000E+08     0.1000000000E+03
         0.2830000000E+08     0.1000000000E+03
         0.2840000000E+08     0.1000000000E+03
         0.2850000000E+08     0.1000000000E+03
         0.2860000000E+08     0.1000000000E+03
         0.2870000000E+08     0.1000000000E+03
         0.2880000000E+08     0.1000000000E+03
         0.2890000000E+08     0.1000000000E+03
         0.2890000000E+08     0.1000000000E+03
         0.2900000000E+08     0.1000000000E+03
         0.2910000000E+08     0.1000000000E+03
         0.2920000000E+08     0.1000000000E+03
         0.2930000000E+08     0.1000000000E+03
         0.2940000000E+08     0.1000000000E+03
         0.2950000000E+08     0.1000000000E+03
         0.2950000000E+08     0.1000000000E+03
         0.2960000000E+08     0.1000000000E+03
         0.2970000000E+08     0.1000000000E+03
         0.2980000000E+08     0.1000000000E+03
         0.2990000000E+08     0.1000000000E+03
         0.3000000000E+08     0.1000000000E+03
         0.3010000000E+08     0.1000000000E+03
         0.3020000000E+08     0.1000000000E+03
         0.3020000000E+08     0.1000000000E+03
         0.3030000000E+08     0.1000000000E+03
         0.3040000000E+08     0.1000000000E+03
         0.3050000000E+08     0.1000000000E+03
         0.3060000000E+08     0.1000000000E+03
         0.3070000000E+08     0.1000000000E+03
         0.3080000000E+08     0.1000000000E+03
         0.3080000000E+08     0.1000000000E+03
         0.3090000000E+08     0.1000000000E+03
         0.3100000000E+08     0.1000000000E+03
         0.3110000000E+08     0.1000000000E+03
         0.3120000000E+08     0.1000000000E+03
         0.3130000000E+08     0.1000000000E+03
         0.3140000000E+08     0.1000000000E+03
         0.3150000000E+08     0.1000000000E+03
         0.3150000000E+08     0.1000000000E+03
         0.3160000000E+08     0.1000000000E+03
         0.3170000000E+08     0.1000000000E+03
         0.3180000000E+08     0.1000000000E+03
         0.3190000000E+08     0.1000000000E+03
         0.3200000000E+08     0.1000000000E+03
         0.3210000000E+08     0.1000000000E+03
         0.3210000000E+08     0.1000000000E+03
         0.3220000000E+08     0.1000000000E+03
         0.3230000000E+08     0.1000000000E+03
         0.3240000000E+08     0.1000000000E+03
         0.3250000000E+08     0.1000000000E+03
         0.3260000000E+08     0.1000000000E+03
         0.3270000000E+08     0.1000000000E+03
         0.3270000000E+08     0.1000000000E+03
         0.3280000000E+08     0.1000000000E+03
         0.3290000000E+08     0.1000000000E+03
         0.3300000000E+08     0.1000000000E+03
         0.3310000000E+08     0.1000000000E+03
         0.3320000000E+08     0.1000000000E+03
         0.3330000000E+08     0.1000000000E+03
         0.3340000000E+08     0.1000000000E+03
         0.3340000000E+08     0.1000000000E+03
         0.3350000000E+08     0.1000000000E+03
         0.3360000000E+08     0.1000000000E+03
         0.3370000000E+08     0.1000000000E+03
         0.3380000000E+08     0.1000000000E+03
         0.3390000000E+08     0.1000000000E+03
         0.3400000000E+08     0.1000000000E+03
         0.3400000000E+08     0.1000000000E+03
         0.3410000000E+08     0.1000000000E+03
         0.3420000000E+08     0.1000000000E+03
         0.3430000000E+08     0.1000000000E+03
         0.3440000000E+08     0.1000000000E+03
         0.3450000000E+08     0.1000000000E+03
         0.3460000000E+08     0.1000000000E+03
         0.3460000000E+08     0.1000000000E+03
         0.3470000000E+08     0.1000000000E+03
         0.3480000000E+08     0.1000000000E+03
         0.3490000000E+08     0.1000000000E+03
         0.3500000000E+08     0.1000000000E+03
         0.3510000000E+08     0.1000000000E+03
         0.3520000000E+08     0.1000000000E+03
         0.3530000000E+08     0.1000000000E+03
         0.3530000000E+08     0.1000000000E+03
         0.3540000000E+08     0.1000000000E+03
         0.3550000000E+08     0.1000000000E+03
         0.3560000000E+08     0.1000000000E+03
         0.3570000000E+08     0.1000000000E+03
         0.3580000000E+08     0.1000000000E+03
         0.3590000000E+08     0.1000000000E+03
         0.3590000000E+08     0.1000000000E+03
         0.3600000000E+08     0.1000000000E+03
         0.3610000000E+08     0.1000000000E+03
         0.3620000000E+08     0.1000000000E+03
         0.3630000000E+08     0.1000000000E+03
         0.3640000000E+08     0.1000000000E+03
         0.3650000000E+08     0.1000000000E+03
         0.3650000000E+08     0.1000000000E+03
         0.3660000000E+08     0.1000000000E+03
         0.3670000000E+08     0.1000000000E+03
         0.3680000000E+08     0.1000000000E+03
         0.3690000000E+08     0.1000000000E+03
         0.3700000000E+08     0.1000000000E+03
         0.3710000000E+08     0.1000000000E+03
         0.3720000000E+08     0.1000000000E+03
         0.3720000000E+08     0.1000000000E+03
         0.3730000000E+08     0.1000000000E+03
         0.3740000000E+08     0.1000000000E+03
         0.3750000000E+08     0.1000000000E+03
         0.3760000000E+08     0.1000000000E+03
         0.3770000000E+08     0.1000000000E+03
         0.3780000000E+08     0.1000000000E+03
         0.3780000000E+08     0.1000000000E+03
         0.3790000000E+08     0.1000000000E+03
         0.3800000000E+08     0.1000000000E+03
         0.3810000000E+08     0.1000000000E+03
         0.3820000000E+08     0.1000000000E+03
         0.3830000000E+08     0.1000000000E+03
         0.3840000000E+08     0.1000000000E+03
         0.3840000000E+08     0.1000000000E+03
         0.3850000000E+08     0.1000000000E+03
         0.3860000000E+08     0.1000000000E+03
         0.3870000000E+08     0.1000000000E+03
         0.3880000000E+08     0.1000000000E+03
         0.3890000000E+08     0.1000000000E+03
         0.3900000000E+08     0.1000000000E+03
         0.3910000000E+08     0.1000000000E+03
         0.3910000000E+08     0.1000000000E+03
         0.3920000000E+08     0.1000000000E+03
         0.3930000000E+08     0.1000000000E+03
         0.3940000000E+08     0.1000000000E+03
         0.3950000000E+08     0.1000000000E+03
         0.3960000000E+08     0.1000000000E+03
         0.3970000000E+08     0.1000000000E+03
         0.3970000000E+08     0.1000000000E+03
         0.3980000000E+08     0.1000000000E+03
         0.3990000000E+08     0.1000000000E+03
         0.4000000000E+08     0.1000000000E+03
         0.4010000000E+08     0.1000000000E+03
         0.4020000000E+08     0.1000000000E+03
         0.4030000000E+08     0.1000000000E+03
         0.4030000000E+08     0.1000000000E+03
         0.4040000000E+08     0.1000000000E+03
         0.4050000000E+08     0.1000000000E+03
         0.4060000000E+08     0.1000000000E+03
         0.4070000000E+08     0.1000000000E+03
         0.4080000000E+08     0.1000000000E+03
         0.4090000000E+08     0.1000000000E+03
         0.4100000000E+08     0.1000000000E+03
         0.4100000000E+08     0.1000000000E+03
         0.4110000000E+08     0.1000000000E+03
         0.4120000000E+08     0.1000000000E+03
         0.4130000000E+08     0.1000000000E+03
         0.4140000000E+08     0.1000000000E+03
         0.4150000000E+08     0.1000000000E+03
         0.4160000000E+08     0.1000000000E+03
         0.4160000000E+08     0.1000000000E+03
         0.4170000000E+08     0.1000000000E+03
         0.4180000000E+08     0.1000000000E+03
         0.4190000000E+08     0.1000000000E+03
         0.4200000000E+08     0.1000000000E+03
         0.4210000000E+08     0.1000000000E+03
         0.4220000000E+08     0.1000000000E+03
         0.4230000000E+08     0.1000000000E+03
         0.4230000000E+08     0.1000000000E+03
         0.4240000000E+08     0.1000000000E+03
         0.4250000000E+08     0.1000000000E+03
         0.4260000000E+08     0.1000000000E+03
         0.4270000000E+08     0.1000000000E+03
         0.4280000000E+08     0.1000000000E+03
         0.4290000000E+08     0.1000000000E+03
         0.4290000000E+08     0.1000000000E+03
         0.4300000000E+08     0.1000000000E+03
         0.4310000000E+08     0.1000000000E+03
         0.4320000000E+08     0.1000000000E+03
         0.4330000000E+08     0.1000000000E+03
         0.4340000000E+08     0.1000000000E+03
         0.4350000000E+08     0.1000000000E+03
         0.4350000000E+08     0.1000000000E+03
         0.4360000000E+08     0.1000000000E+03
         0.4370000000E+08     0.1000000000E+03
         0.4380000000E+08     0.1000000000E+03
         0.4390000000E+08     0.1000000000E+03
         0.4400000000E+08     0.1000000000E+03
         0.4410000000E+08     0.1000000000E+03
         0.4420000000E+08     0.1000000000E+03
         0.4420000000E+08     0.1000000000E+03
         0.4430000000E+08     0.1000000000E+03
         0.4440000000E+08     0.1000000000E+03
         0.4450000000E+08     0.1000000000E+03
         0.4460000000E+08     0.1000000000E+03
         0.4470000000E+08     0.1000000000E+03
         0.4480000000E+08     0.1000000000E+03
         0.4480000000E+08     0.1000000000E+03
         0.4490000000E+08     0.1000000000E+03
         0.4500000000E+08     0.1000000000E+03
         0.4510000000E+08     0.1000000000E+03
         0.4520000000E+08     0.1000000000E+03
         0.4530000000E+08     0.1000000000E+03
         0.4540000000E+08     0.1000000000E+03
         0.4540000000E+08     0.1000000000E+03
         0.4550000000E+08     0.1000000000E+03
         0.4560000000E+08     0.1000000000E+03
         0.4570000000E+08     0.1000000000E+03
         0.4580000000E+08     0.1000000000E+03
         0.4590000000E+08     0.1000000000E+03
         0.4600000000E+08     0.1000000000E+03
         0.4610000000E+08     0.1000000000E+03
         0.4610000000E+08     0.1000000000E+03
         0.4620000000E+08     0.1000000000E+03
         0.4630000000E+08     0.1000000000E+03
         0.4640000000E+08     0.1000000000E+03
         0.4650000000E+08     0.1000000000E+03
         0.4660000000E+08     0.1000000000E+03
         0.4670000000E+08     0.1000000000E+03
         0.4670000000E+08     0.1000000000E+03
         0.4680000000E+08     0.1000000000E+03
         0.4690000000E+08     0.1000000000E+03
         0.4700000000E+08     0.1000000000E+03
         0.4710000000E+08     0.1000000000E+03
         0.4720000000E+08     0.1000000000E+03
         0.4730000000E+08     0.1000000000E+03
         0.4730000000E+08     0.1000000000E+03
         0.4740000000E+08     0.1000000000E+03
         0.4750000000E+08     0.1000000000E+03
         0.4760000000E+08     0.1000000000E+03
         0.4770000000E+08     0.1000000000E+03
         0.4780000000E+08     0.1000000000E+03
         0.4790000000E+08     0.1000000000E+03
         0.4800000000E+08     0.1000000000E+03
         0.4800000000E+08     0.1000000000E+03
         0.4810000000E+08     0.1000000000E+03
         0.4820000000E+08     0.1000000000E+03
         0.4830000000E+08     0.1000000000E+03
         0.4840000000E+08     0.1000000000E+03
         0.4850000000E+08     0.1000000000E+03
         0.4860000000E+08     0.1000000000E+03
         0.4860000000E+08     0.1000000000E+03
         0.4870000000E+08     0.1000000000E+03
         0.4880000000E+08     0.1000000000E+03
         0.4890000000E+08     0.1000000000E+03
         0.4900000000E+08     0.1000000000E+03
         0.4910000000E+08     0.1000000000E+03
         0.4920000000E+08     0.1000000000E+03
         0.4920000000E+08     0.1000000000E+03
         0.4930000000E+08     0.1000000000E+03
         0.4940000000E+08     0.1000000000E+03
         0.4950000000E+08     0.1000000000E+03
         0.4960000000E+08     0.1000000000E+03
         0.4970000000E+08     0.1000000000E+03
         0.4980000000E+08     0.1000000000E+03
         0.4990000000E+08     0.1000000000E+03
         0.4990000000E+08     0.1000000000E+03
         0.5000000000E+08     0.1000000000E+03
         0.5010000000E+08     0.1000000000E+03
         0.5020000000E+08     0.1000000000E+03
         0.5030000000E+08     0.1000000000E+03
         0.5040000000E+08     0.1000000000E+03
         0.5050000000E+08     0.1000000000E+03
         0.5050000000E+08     0.1000000000E+03
         0.5060000000E+08     0.1000000000E+03
         0.5070000000E+08     0.1000000000E+03
         0.5080000000E+08     0.1000000000E+03
         0.5090000000E+08     0.1000000000E+03
         0.5100000000E+08     0.1000000000E+03
         0.5110000000E+08     0.1000000000E+03
         0.5110000000E+08     0.1000000000E+03
         0.5120000000E+08     0.1000000000E+03
         0.5130000000E+08     0.1000000000E+03
         0.5140000000E+08     0.1000000000E+03
         0.5150000000E+08     0.1000000000E+03
         0.5160000000E+08     0.1000000000E+03
         0.5170000000E+08     0.1000000000E+03
         0.5180000000E+08     0.1000000000E+03
         0.5180000000E+08     0.1000000000E+03
         0.5190000000E+08     0.1000000000E+03
         0.5200000000E+08     0.1000000000E+03
         0.5210000000E+08     0.1000000000E+03
         0.5220000000E+08     0.1000000000E+03
         0.5230000000E+08     0.1000000000E+03
         0.5240000000E+08     0.1000000000E+03
         0.5240000000E+08     0.1000000000E+03
         0.5250000000E+08     0.1000000000E+03
         0.5260000000E+08     0.1000000000E+03
         0.5270000000E+08     0.1000000000E+03
         0.5280000000E+08     0.1000000000E+03
         0.5290000000E+08     0.1000000000E+03
         0.5300000000E+08     0.1000000000E+03
         0.5310000000E+08     0.1000000000E+03
         0.5310000000E+08     0.1000000000E+03
         0.5320000000E+08     0.1000000000E+03
         0.5330000000E+08     0.1000000000E+03
         0.5340000000E+08     0.1000000000E+03
         0.5350000000E+08     0.1000000000E+03
         0.5360000000E+08     0.1000000000E+03
         0.5370000000E+08     0.1000000000E+03
         0.5370000000E+08     0.1000000000E+03
         0.5380000000E+08     0.1000000000E+03
         0.5390000000E+08     0.1000000000E+03
         0.5400000000E+08     0.1000000000E+03
         0.5410000000E+08     0.1000000000E+03
         0.5420000000E+08     0.1000000000E+03
         0.5430000000E+08     0.1000000000E+03
         0.5430000000E+08     0.1000000000E+03
         0.5440000000E+08     0.1000000000E+03
         0.5450000000E+08     0.1000000000E+03
         0.5460000000E+08     0.1000000000E+03
         0.5470000000E+08     0.1000000000E+03
         0.5480000000E+08     0.1000000000E+03
         0.5490000000E+08     0.1000000000E+03
         0.5500000000E+08     0.1000000000E+03
         0.5500000000E+08     0.1000000000E+03
         0.5510000000E+08     0.1000000000E+03
         0.5520000000E+08     0.1000000000E+03
         0.5530000000E+08     0.1000000000E+03
         0.5540000000E+08     0.1000000000E+03
         0.5550000000E+08     0.1000000000E+03
         0.5560000000E+08     0.1000000000E+03
         0.5560000000E+08     0.1000000000E+03
         0.5570000000E+08     0.1000000000E+03
         0.5580000000E+08     0.1000000000E+03
         0.5590000000E+08     0.1000000000E+03
         0.5600000000E+08     0.1000000000E+03
         0.5610000000E+08     0.1000000000E+03
         0.5620000000E+08     0.1000000000E+03
         0.5620000000E+08     0.1000000000E+03
         0.5630000000E+08     0.1000000000E+03
         0.5640000000E+08     0.1000000000E+03
         0.5650000000E+08     0.1000000000E+03
         0.5660000000E+08     0.1000000000E+03
         0.5670000000E+08     0.1000000000E+03
         0.5680000000E+08     0.1000000000E+03
         0.5690000000E+08     0.1000000000E+03
         0.5690000000E+08     0.1000000000E+03
         0.5700000000E+08     0.1000000000E+03
         0.5710000000E+08     0.1000000000E+03
         0.5720000000E+08     0.1000000000E+03
         0.5730000000E+08     0.1000000000E+03
         0.5740000000E+08     0.1000000000E+03
         0.5750000000E+08     0.1000000000E+03
         0.5750000000E+08     0.1000000000E+03
         0.5760000000E+08     0.1000000000E+03
         0.5770000000E+08     0.1000000000E+03
         0.5780000000E+08     0.1000000000E+03
         0.5790000000E+08     0.1000000000E+03
         0.5800000000E+08     0.1000000000E+03
         0.5810000000E+08     0.1000000000E+03
         0.5810000000E+08     0.1000000000E+03
         0.5820000000E+08     0.1000000000E+03
         0.5830000000E+08     0.1000000000E+03
         0.5840000000E+08     0.1000000000E+03
         0.5850000000E+08     0.1000000000E+03
         0.5860000000E+08     0.1000000000E+03
         0.5870000000E+08     0.1000000000E+03
         0.5880000000E+08     0.1000000000E+03
         0.5880000000E+08     0.1000000000E+03
         0.5890000000E+08     0.1000000000E+03
         0.5900000000E+08     0.1000000000E+03
         0.5910000000E+08     0.1000000000E+03
         0.5920000000E+08     0.1000000000E+03
         0.5930000000E+08     0.1000000000E+03
         0.5940000000E+08     0.1000000000E+03
         0.5940000000E+08     0.1000000000E+03
         0.5950000000E+08     0.1000000000E+03
         0.5960000000E+08     0.1000000000E+03
         0.5970000000E+08     0.1000000000E+03
         0.5980000000E+08     0.1000000000E+03
         0.5990000000E+08     0.1000000000E+03
         0.6000000000E+08     0.1000000000E+03
         0.6000000000E+08     0.1000000000E+03
         0.6010000000E+08     0.1000000000E+03
         0.6020000000E+08     0.1000000000E+03
         0.6030000000E+08     0.1000000000E+03
         0.6040000000E+08     0.1000000000E+03
         0.6050000000E+08     0.1000000000E+03
         0.6060000000E+08     0.1000000000E+03
         0.6070000000E+08     0.1000000000E+03
         0.6070000000E+08     0.1000000000E+03
         0.6080000000E+08     0.1000000000E+03
         0.6090000000E+08     0.1000000000E+03
         0.6100000000E+08     0.1000000000E+03
         0.6110000000E+08     0.1000000000E+03
         0.6120000000E+08     0.1000000000E+03
         0.6130000000E+08     0.1000000000E+03
         0.6130000000E+08     0.1000000000E+03
         0.6140000000E+08     0.1000000000E+03
         0.6150000000E+08     0.1000000000E+03
         0.6160000000E+08     0.1000000000E+03
         0.6170000000E+08     0.1000000000E+03
         0.6180000000E+08     0.1000000000E+03
         0.6190000000E+08     0.1000000000E+03
         0.6190000000E+08     0.1000000000E+03
         0.6200000000E+08     0.1000000000E+03
         0.6210000000E+08     0.1000000000E+03
         0.6220000000E+08     0.1000000000E+03
         0.6230000000E+08     0.1000000000E+03
         0.6240000000E+08     0.1000000000E+03
         0.6250000000E+08     0.1000000000E+03
         0.6260000000E+08     0.1000000000E+03
         0.6260000000E+08     0.1000000000E+03
         0.6270000000E+08     0.1000000000E+03
         0.6280000000E+08     0.1000000000E+03
         0.6290000000E+08     0.1000000000E+03
         0.6300000000E+08     0.1000000000E+03
         0.6310000000E+08     0.1000000000E+03
         0.6320000000E+08     0.1000000000E+03
         0.6320000000E+08     0.1000000000E+03
         0.6330000000E+08     0.1000000000E+03
         0.6340000000E+08     0.1000000000E+03
         0.6350000000E+08     0.1000000000E+03
         0.6360000000E+08     0.1000000000E+03
         0.6370000000E+08     0.1000000000E+03
         0.6380000000E+08     0.1000000000E+03
         0.6390000000E+08     0.1000000000E+03
         0.6390000000E+08     0.1000000000E+03
         0.6400000000E+08     0.1000000000E+03
         0.6410000000E+08     0.1000000000E+03
         0.6420000000E+08     0.1000000000E+03
         0.6430000000E+08     0.1000000000E+03
         0.6440000000E+08     0.1000000000E+03
         0.6450000000E+08     0.1000000000E+03
         0.6450000000E+08     0.1000000000E+03
         0.6460000000E+08     0.1000000000E+03
         0.6470000000E+08     0.1000000000E+03
         0.6480000000E+08     0.1000000000E+03
         0.6490000000E+08     0.1000000000E+03
         0.6500000000E+08     0.1000000000E+03
         0.6510000000E+08     0.1000000000E+03
         0.6510000000E+08     0.1000000000E+03
         0.6520000000E+08     0.1000000000E+03
         0.6530000000E+08     0.1000000000E+03
         0.6540000000E+08     0.1000000000E+03
         0.6550000000E+08     0.1000000000E+03
         0.6560000000E+08     0.1000000000E+03
         0.6570000000E+08     0.1000000000E+03
         0.6580000000E+08     0.1000000000E+03
         0.6590000000E+08     0.1000000000E+03
         0.6600000000E+08     0.1000000000E+03
         0.6610000000E+08     0.1000000000E+03
         0.6610000000E+08     0.1000000000E+03
         0.6620000000E+08     0.1000000000E+03
         0.6630000000E+08     0.1000000000E+03
         0.6640000000E+08     0.1000000000E+03
         0.6650000000E+08     0.1000000000E+03
         0.6660000000E+08     0.1000000000E+03
         0.6670000000E+08     0.1000000000E+03
         0.6670000000E+08     0.1000000000E+03
         0.6680000000E+08     0.1000000000E+03
         0.6690000000E+08     0.1000000000E+03
         0.6700000000E+08     0.1000000000E+03
         0.6710000000E+08     0.1000000000E+03
         0.6720000000E+08     0.1000000000E+03
         0.6730000000E+08     0.1000000000E+03
         0.6730000000E+08     0.1000000000E+03
         0.6740000000E+08     0.1000000000E+03
         0.6750000000E+08     0.1000000000E+03
         0.6760000000E+08     0.1000000000E+03
         0.6770000000E+08     0.1000000000E+03
         0.6780000000E+08     0.1000000000E+03
         0.6790000000E+08     0.1000000000E+03
         0.6800000000E+08     0.1000000000E+03
         0.6810000000E+08     0.1000000000E+03
         0.6820000000E+08     0.1000000000E+03
         0.6830000000E+08     0.1000000000E+03
         0.6830000000E+08     0.1000000000E+03
         0.6840000000E+08     0.1000000000E+03
         0.6850000000E+08     0.1000000000E+03
         0.6860000000E+08     0.1000000000E+03
         0.6870000000E+08     0.1000000000E+03
         0.6880000000E+08     0.1000000000E+03
         0.6890000000E+08     0.1000000000E+03
         0.6890000000E+08     0.1000000000E+03
         0.6900000000E+08     0.1000000000E+03
         0.6910000000E+08     0.1000000000E+03
         0.6920000000E+08     0.1000000000E+03
         0.6930000000E+08     0.1000000000E+03
         0.6940000000E+08     0.1000000000E+03
         0.6950000000E+08     0.1000000000E+03
         0.6950000000E+08     0.1000000000E+03
         0.6960000000E+08     0.1000000000E+03
         0.6970000000E+08     0.1000000000E+03
         0.6980000000E+08     0.1000000000E+03
         0.6990000000E+08     0.1000000000E+03
         0.7000000000E+08     0.1000000000E+03
         0.7010000000E+08     0.1000000000E+03
         0.7020000000E+08     0.1000000000E+03
         0.7030000000E+08     0.1000000000E+03
         0.7040000000E+08     0.1000000000E+03
         0.7050000000E+08     0.1000000000E+03
         0.7050000000E+08     0.1000000000E+03
         0.7060000000E+08     0.1000000000E+03
         0.7070000000E+08     0.1000000000E+03
         0.7080000000E+08     0.1000000000E+03
         0.7090000000E+08     0.1000000000E+03
         0.7100000000E+08     0.1000000000E+03
         0.7110000000E+08     0.1000000000E+03
         0.7110000000E+08     0.1000000000E+03
         0.7120000000E+08     0.1000000000E+03
         0.7130000000E+08     0.1000000000E+03
         0.7140000000E+08     0.1000000000E+03
         0.7150000000E+08     0.1000000000E+03
         0.7160000000E+08     0.1000000000E+03
         0.7170000000E+08     0.1000000000E+03
         0.7170000000E+08     0.1000000000E+03
         0.7180000000E+08     0.1000000000E+03
         0.7190000000E+08     0.1000000000E+03
         0.7200000000E+08     0.1000000000E+03
         0.7210000000E+08     0.1000000000E+03
         0.7220000000E+08     0.1000000000E+03
         0.7230000000E+08     0.1000000000E+03
         0.7240000000E+08     0.1000000000E+03
         0.7250000000E+08     0.1000000000E+03
         0.7260000000E+08     0.1000000000E+03
         0.7270000000E+08     0.1000000000E+03
         0.7270000000E+08     0.1000000000E+03
         0.7280000000E+08     0.1000000000E+03
         0.7290000000E+08     0.1000000000E+03
         0.7300000000E+08     0.1000000000E+03
         0.7310000000E+08     0.1000000000E+03
         0.7320000000E+08     0.1000000000E+03
         0.7330000000E+08     0.1000000000E+03
         0.7330000000E+08     0.1000000000E+03
         0.7340000000E+08     0.1000000000E+03
         0.7350000000E+08     0.1000000000E+03
         0.7360000000E+08     0.1000000000E+03
         0.7370000000E+08     0.1000000000E+03
         0.7380000000E+08     0.1000000000E+03
         0.7390000000E+08     0.1000000000E+03
         0.7390000000E+08     0.1000000000E+03
         0.7400000000E+08     0.1000000000E+03
         0.7410000000E+08     0.1000000000E+03
         0.7420000000E+08     0.1000000000E+03
         0.7430000000E+08     0.1000000000E+03
         0.7440000000E+08     0.1000000000E+03
         0.7450000000E+08     0.1000000000E+03
         0.7460000000E+08     0.1000000000E+03
         0.7470000000E+08     0.1000000000E+03
         0.7480000000E+08     0.1000000000E+03
         0.7490000000E+08     0.1000000000E+03
         0.7490000000E+08     0.1000000000E+03
         0.7500000000E+08     0.1000000000E+03
         0.7510000000E+08     0.1000000000E+03
         0.7520000000E+08     0.1000000000E+03
         0.7530000000E+08     0.1000000000E+03
         0.7540000000E+08     0.1000000000E+03
         0.7550000000E+08     0.1000000000E+03
         0.7550000000E+08     0.1000000000E+03
         0.7560000000E+08     0.1000000000E+03
         0.7570000000E+08     0.1000000000E+03
         0.7580000000E+08     0.1000000000E+03
         0.7590000000E+08     0.1000000000E+03
         0.7600000000E+08     0.1000000000E+03
         0.7610000000E+08     0.1000000000E+03
         0.7610000000E+08     0.1000000000E+03
         0.7620000000E+08     0.1000000000E+03
         0.7630000000E+08     0.1000000000E+03
         0.7640000000E+08     0.1000000000E+03
         0.7650000000E+08     0.1000000000E+03
         0.7660000000E+08     0.1000000000E+03
         0.7670000000E+08     0.1000000000E+03
         0.7680000000E+08     0.1000000000E+03
         0.7690000000E+08     0.1000000000E+03
         0.7700000000E+08     0.1000000000E+03
         0.7710000000E+08     0.1000000000E+03
         0.7710000000E+08     0.1000000000E+03
         0.7720000000E+08     0.1000000000E+03
         0.7730000000E+08     0.1000000000E+03
         0.7740000000E+08     0.1000000000E+03
         0.7750000000E+08     0.1000000000E+03
         0.7760000000E+08     0.1000000000E+03
         0.7770000000E+08     0.1000000000E+03
         0.7770000000E+08     0.1000000000E+03
         0.7780000000E+08     0.1000000000E+03
         0.7790000000E+08     0.1000000000E+03
         0.7800000000E+08     0.1000000000E+03
         0.7810000000E+08     0.1000000000E+03
         0.7820000000E+08     0.1000000000E+03
         0.7830000000E+08     0.1000000000E+03
         0.7830000000E+08     0.1000000000E+03
         0.7840000000E+08     0.1000000000E+03
         0.7850000000E+08     0.1000000000E+03
         0.7860000000E+08     0.1000000000E+03
         0.7870000000E+08     0.1000000000E+03
         0.7880000000E+08     0.1000000000E+03
         0.7890000000E+08     0.1000000000E+03
         0.7900000000E+08     0.1000000000E+03
         0.7910000000E+08     0.1000000000E+03
         0.7920000000E+08     0.1000000000E+03
         0.7930000000E+08     0.1000000000E+03
         0.7930000000E+08     0.1000000000E+03
         0.7940000000E+08     0.1000000000E+03
         0.7950000000E+08     0.1000000000E+03
         0.7960000000E+08     0.1000000000E+03
         0.7970000000E+08     0.1000000000E+03
         0.7980000000E+08     0.1000000000E+03
         0.7990000000E+08     0.1000000000E+03
         0.7990000000E+08     0.1000000000E+03
         0.8000000000E+08     0.1000000000E+03
         0.8010000000E+08     0.1000000000E+03
         0.8020000000E+08     0.1000000000E+03
         0.8030000000E+08     0.1000000000E+03
         0.8040000000E+08     0.1000000000E+03
         0.8050000000E+08     0.1000000000E+03
         0.8050000000E+08     0.1000000000E+03
         0.8060000000E+08     0.1000000000E+03
         0.8070000000E+08     0.1000000000E+03
         0.8080000000E+08     0.1000000000E+03
         0.8090000000E+08     0.1000000000E+03
         0.8100000000E+08     0.1000000000E+03
         0.8110000000E+08     0.1000000000E+03
         0.8120000000E+08     0.1000000000E+03
         0.8130000000E+08     0.1000000000E+03
         0.8140000000E+08     0.1000000000E+03
         0.8150000000E+08     0.1000000000E+03
         0.8150000000E+08     0.1000000000E+03
         0.8160000000E+08     0.1000000000E+03
         0.8170000000E+08     0.1000000000E+03
         0.8180000000E+08     0.1000000000E+03
         0.8190000000E+08     0.1000000000E+03
         0.8200000000E+08     0.1000000000E+03
         0.8210000000E+08     0.1000000000E+03
         0.8210000000E+08     0.1000000000E+03
         0.8220000000E+08     0.1000000000E+03
         0.8230000000E+08     0.1000000000E+03
         0.8240000000E+08     0.1000000000E+03
         0.8250000000E+08     0.1000000000E+03
         0.8260000000E+08     0.1000000000E+03
         0.8270000000E+08     0.1000000000E+03
         0.8270000000E+08     0.1000000000E+03
         0.8280000000E+08     0.1000000000E+03
         0.8290000000E+08     0.1000000000E+03
         0.8300000000E+08     0.1000000000E+03
         0.8310000000E+08     0.1000000000E+03
         0.8320000000E+08     0.1000000000E+03
         0.8330000000E+08     0.1000000000E+03
         0.8340000000E+08     0.1000000000E+03
         0.8350000000E+08     0.1000000000E+03
         0.8360000000E+08     0.1000000000E+03
         0.8370000000E+08     0.1000000000E+03
         0.8370000000E+08     0.1000000000E+03
         0.8380000000E+08     0.1000000000E+03
         0.8390000000E+08     0.1000000000E+03
         0.8400000000E+08     0.1000000000E+03
         0.8410000000E+08     0.1000000000E+03
         0.8420000000E+08     0.1000000000E+03
         0.8430000000E+08     0.1000000000E+03
         0.8430000000E+08     0.1000000000E+03
         0.8440000000E+08     0.1000000000E+03
         0.8450000000E+08     0.1000000000E+03
         0.8460000000E+08     0.1000000000E+03
         0.8470000000E+08     0.1000000000E+03
         0.8480000000E+08     0.1000000000E+03
         0.8490000000E+08     0.1000000000E+03
         0.8490000000E+08     0.1000000000E+03
         0.8500000000E+08     0.1000000000E+03
         0.8510000000E+08     0.1000000000E+03
         0.8520000000E+08     0.1000000000E+03
         0.8530000000E+08     0.1000000000E+03
         0.8540000000E+08     0.1000000000E+03
         0.8550000000E+08     0.1000000000E+03
         0.8560000000E+08     0.1000000000E+03
         0.8570000000E+08     0.1000000000E+03
         0.8580000000E+08     0.1000000000E+03
         0.8590000000E+08     0.1000000000E+03
         0.8590000000E+08     0.1000000000E+03
         0.8600000000E+08     0.1000000000E+03
         0.8610000000E+08     0.1000000000E+03
         0.8620000000E+08     0.1000000000E+03
         0.8630000000E+08     0.1000000000E+03
         0.8640000000E+08     0.1000000000E+03
         0.8650000000E+08     0.1000000000E+03
         0.8650000000E+08     0.1000000000E+03
         0.8660000000E+08     0.1000000000E+03
         0.8670000000E+08     0.1000000000E+03
         0.8680000000E+08     0.1000000000E+03
         0.8690000000E+08     0.1000000000E+03
         0.8700000000E+08     0.1000000000E+03
         0.8710000000E+08     0.1000000000E+03
         0.8710000000E+08     0.1000000000E+03
         0.8720000000E+08     0.1000000000E+03
         0.8730000000E+08     0.1000000000E+03
         0.8740000000E+08     0.1000000000E+03
         0.8750000000E+08     0.1000000000E+03
         0.8760000000E+08     0.1000000000E+03
         0.8770000000E+08     0.1000000000E+03
         0.8780000000E+08     0.1000000000E+03
         0.8790000000E+08     0.1000000000E+03
         0.8800000000E+08     0.1000000000E+03
         0.8810000000E+08     0.1000000000E+03
         0.8810000000E+08     0.1000000000E+03
         0.8820000000E+08     0.1000000000E+03
         0.8830000000E+08     0.1000000000E+03
         0.8840000000E+08     0.1000000000E+03
         0.8850000000E+08     0.1000000000E+03
         0.8860000000E+08     0.1000000000E+03
         0.8870000000E+08     0.1000000000E+03
         0.8870000000E+08     0.1000000000E+03
         0.8880000000E+08     0.1000000000E+03
         0.8890000000E+08     0.1000000000E+03
         0.8900000000E+08     0.1000000000E+03
         0.8910000000E+08     0.1000000000E+03
         0.8920000000E+08     0.1000000000E+03
         0.8930000000E+08     0.1000000000E+03
         0.8930000000E+08     0.1000000000E+03
         0.8940000000E+08     0.1000000000E+03
         0.8950000000E+08     0.1000000000E+03
         0.8960000000E+08     0.1000000000E+03
         0.8970000000E+08     0.1000000000E+03
         0.8980000000E+08     0.1000000000E+03
         0.8990000000E+08     0.1000000000E+03
         0.9000000000E+08     0.1000000000E+03
         0.9010000000E+08     0.1000000000E+03
         0.9020000000E+08     0.1000000000E+03
         0.9030000000E+08     0.1000000000E+03
         0.9030000000E+08     0.1000000000E+03
         0.9040000000E+08     0.1000000000E+03
         0.9050000000E+08     0.1000000000E+03
         0.9060000000E+08     0.1000000000E+03
         0.9070000000E+08     0.1000000000E+03
         0.9080000000E+08     0.1000000000E+03
         0.9090000000E+08     0.1000000000E+03
         0.9090000000E+08     0.1000000000E+03
         0.9100000000E+08     0.1000000000E+03
         0.9110000000E+08     0.1000000000E+03
         0.9120000000E+08     0.1000000000E+03
         0.9130000000E+08     0.1000000000E+03
         0.9140000000E+08     0.1000000000E+03
         0.9150000000E+08     0.1000000000E+03
         0.9150000000E+08     0.1000000000E+03
         0.9160000000E+08     0.1000000000E+03
         0.9170000000E+08     0.1000000000E+03
         0.9180000000E+08     0.1000000000E+03
         0.9190000000E+08     0.1000000000E+03
         0.9200000000E+08     0.1000000000E+03
         0.9210000000E+08     0.1000000000E+03
         0.9220000000E+08     0.1000000000E+03
         0.9230000000E+08     0.1000000000E+03
         0.9240000000E+08     0.1000000000E+03
         0.9250000000E+08     0.1000000000E+03
         0.9250000000E+08     0.1000000000E+03
         0.9260000000E+08     0.1000000000E+03
         0.9270000000E+08     0.1000000000E+03
         0.9280000000E+08     0.1000000000E+03
         0.9290000000E+08     0.1000000000E+03
         0.9300000000E+08     0.1000000000E+03
         0.9310000000E+08     0.1000000000E+03
         0.9310000000E+08     0.1000000000E+03
         0.9320000000E+08     0.1000000000E+03
         0.9330000000E+08     0.1000000000E+03
         0.9340000000E+08     0.1000000000E+03
         0.9350000000E+08     0.1000000000E+03
         0.9360000000E+08     0.1000000000E+03
         0.9370000000E+08     0.1000000000E+03
         0.9370000000E+08     0.1000000000E+03
         0.9380000000E+08     0.1000000000E+03
         0.9390000000E+08     0.1000000000E+03
         0.9400000000E+08     0.1000000000E+03
         0.9410000000E+08     0.1000000000E+03
         0.9420000000E+08     0.1000000000E+03
         0.9430000000E+08     0.1000000000E+03
         0.9440000000E+08     0.1000000000E+03
         0.9450000000E+08     0.1000000000E+03
         0.9460000000E+08     0.1000000000E+03
         0.9470000000E+08     0.1000000000E+03
         0.9470000000E+08     0.1000000000E+03
         0.9480000000E+08     0.1000000000E+03
         0.9490000000E+08     0.1000000000E+03
         0.9500000000E+08     0.1000000000E+03
         0.9510000000E+08     0.1000000000E+03
         0.9520000000E+08     0.1000000000E+03
         0.9530000000E+08     0.1000000000E+03
         0.9530000000E+08     0.1000000000E+03
         0.9540000000E+08     0.1000000000E+03
         0.9550000000E+08     0.1000000000E+03
         0.9560000000E+08     0.1000000000E+03
         0.9570000000E+08     0.1000000000E+03
         0.9580000000E+08     0.1000000000E+03
         0.9590000000E+08     0.1000000000E+03
         0.9590000000E+08     0.1000000000E+03
         0.9600000000E+08     0.1000000000E+03
         0.9610000000E+08     0.1000000000E+03
         0.9620000000E+08     0.1000000000E+03
         0.9630000000E+08     0.1000000000E+03
         0.9640000000E+08     0.1000000000E+03
         0.9650000000E+08     0.1000000000E+03
         0.9660000000E+08     0.1000000000E+03
         0.9670000000E+08     0.1000000000E+03
         0.9680000000E+08     0.1000000000E+03
         0.9690000000E+08     0.1000000000E+03
         0.9690000000E+08     0.1000000000E+03
         0.9700000000E+08     0.1000000000E+03
         0.9710000000E+08     0.1000000000E+03
         0.9720000000E+08     0.1000000000E+03
         0.9730000000E+08     0.1000000000E+03
         0.9740000000E+08     0.1000000000E+03
         0.9750000000E+08     0.1000000000E+03
         0.9750000000E+08     0.1000000000E+03
         0.9760000000E+08     0.1000000000E+03
         0.9770000000E+08     0.1000000000E+03
         0.9780000000E+08     0.1000000000E+03
         0.9790000000E+08     0.1000000000E+03
         0.9800000000E+08     0.1000000000E+03
         0.9810000000E+08     0.1000000000E+03
         0.9810000000E+08     0.1000000000E+03
         0.9820000000E+08     0.1000000000E+03
         0.9830000000E+08     0.1000000000E+03
         0.9840000000E+08     0.1000000000E+03
         0.9850000000E+08     0.1000000000E+03
         0.9860000000E+08     0.1000000000E+03
         0.9870000000E+08     0.1000000000E+03
         0.9880000000E+08     0.1000000000E+03
         0.9890000000E+08     0.1000000000E+03
         0.9900000000E+08     0.1000000000E+03
         0.9910000000E+08     0.1000000000E+03
         0.9910000000E+08     0.1000000000E+03
         0.9920000000E+08     0.1000000000E+03
         0.9930000000E+08     0.1000000000E+03
         0.9940000000E+08     0.1000000000E+03
         0.9950000000E+08     0.1000000000E+03
         0.9960000000E+08     0.1000000000E+03
         0.9970000000E+08     0.1000000000E+03
         0.9970000000E+08     0.1000000000E+03
         0.9980000000E+08     0.1000000000E+03
         0.9990000000E+08     0.1000000000E+03
         0.1000000000E+09     0.1000000000E+03
         0.1001000000E+09     0.1000000000E+03
         0.1002000000E+09     0.1000000000E+03
         0.1003000000E+09     0.1000000000E+03
         0.1003000000E+09     0.1000000000E+03
         0.1004000000E+09     0.1000000000E+03
         0.1005000000E+09     0.1000000000E+03
         0.1006000000E+09     0.1000000000E+03
         0.1007000000E+09     0.1000000000E+03
         0.1008000000E+09     0.1000000000E+03
         0.1009000000E+09     0.1000000000E+03
         0.1010000000E+09     0.1000000000E+03
         0.1011000000E+09     0.1000000000E+03
         0.1012000000E+09     0.1000000000E+03
         0.1013000000E+09     0.1000000000E+03
         0.1013000000E+09     0.1000000000E+03
         0.1014000000E+09     0.1000000000E+03
         0.1015000000E+09     0.1000000000E+03
         0.1016000000E+09     0.1000000000E+03
         0.1017000000E+09     0.1000000000E+03
         0.1018000000E+09     0.1000000000E+03
         0.1019000000E+09     0.1000000000E+03
         0.1019000000E+09     0.1000000000E+03
         0.1020000000E+09     0.1000000000E+03
         0.1021000000E+09     0.1000000000E+03
         0.1022000000E+09     0.1000000000E+03
         0.1023000000E+09     0.1000000000E+03
         0.1024000000E+09     0.1000000000E+03
         0.1025000000E+09     0.1000000000E+03
         0.1025000000E+09     0.1000000000E+03
         0.1026000000E+09     0.1000000000E+03
         0.1027000000E+09     0.1000000000E+03
         0.1028000000E+09     0.1000000000E+03
         0.1029000000E+09     0.1000000000E+03
         0.1030000000E+09     0.1000000000E+03
         0.1031000000E+09     0.1000000000E+03
         0.1032000000E+09     0.1000000000E+03
         0.1033000000E+09     0.1000000000E+03
         0.1034000000E+09     0.1000000000E+03
         0.1035000000E+09     0.1000000000E+03
         0.1035000000E+09     0.1000000000E+03
         0.1036000000E+09     0.1000000000E+03
         0.1037000000E+09     0.1000000000E+03
         0.1038000000E+09     0.1000000000E+03
         0.1039000000E+09     0.1000000000E+03
         0.1040000000E+09     0.1000000000E+03
         0.1041000000E+09     0.1000000000E+03
         0.1041000000E+09     0.1000000000E+03
         0.1042000000E+09     0.1000000000E+03
         0.1043000000E+09     0.1000000000E+03
         0.1044000000E+09     0.1000000000E+03
         0.1045000000E+09     0.1000000000E+03
         0.1046000000E+09     0.1000000000E+03
         0.1047000000E+09     0.1000000000E+03
         0.1047000000E+09     0.1000000000E+03
         0.1048000000E+09     0.1000000000E+03
         0.1049000000E+09     0.1000000000E+03
         0.1050000000E+09     0.1000000000E+03
         0.1051000000E+09     0.1000000000E+03
         0.1052000000E+09     0.1000000000E+03
         0.1053000000E+09     0.1000000000E+03
         0.1054000000E+09     0.1000000000E+03
         0.1055000000E+09     0.1000000000E+03
         0.1056000000E+09     0.1000000000E+03
         0.1057000000E+09     0.1000000000E+03
         0.1057000000E+09     0.1000000000E+03
         0.1058000000E+09     0.1000000000E+03
         0.1059000000E+09     0.1000000000E+03
         0.1060000000E+09     0.1000000000E+03
         0.1061000000E+09     0.1000000000E+03
         0.1062000000E+09     0.1000000000E+03
         0.1063000000E+09     0.1000000000E+03
         0.1063000000E+09     0.1000000000E+03
         0.1064000000E+09     0.1000000000E+03
         0.1065000000E+09     0.1000000000E+03
         0.1066000000E+09     0.1000000000E+03
         0.1067000000E+09     0.1000000000E+03
         0.1068000000E+09     0.1000000000E+03
         0.1069000000E+09     0.1000000000E+03
         0.1069000000E+09     0.1000000000E+03
         0.1070000000E+09     0.1000000000E+03
         0.1071000000E+09     0.1000000000E+03
         0.1072000000E+09     0.1000000000E+03
         0.1073000000E+09     0.1000000000E+03
         0.1074000000E+09     0.1000000000E+03
         0.1075000000E+09     0.1000000000E+03
         0.1076000000E+09     0.1000000000E+03
         0.1077000000E+09     0.1000000000E+03
         0.1078000000E+09     0.1000000000E+03
         0.1079000000E+09     0.1000000000E+03
         0.1079000000E+09     0.1000000000E+03
         0.1080000000E+09     0.1000000000E+03
         0.1081000000E+09     0.1000000000E+03
         0.1082000000E+09     0.1000000000E+03
         0.1083000000E+09     0.1000000000E+03
         0.1084000000E+09     0.1000000000E+03
         0.1085000000E+09     0.1000000000E+03
         0.1085000000E+09     0.1000000000E+03
         0.1086000000E+09     0.1000000000E+03
         0.1087000000E+09     0.1000000000E+03
         0.1088000000E+09     0.1000000000E+03
         0.1089000000E+09     0.1000000000E+03
         0.1090000000E+09     0.1000000000E+03
         0.1091000000E+09     0.1000000000E+03
         0.1091000000E+09     0.1000000000E+03
         0.1092000000E+09     0.1000000000E+03
         0.1093000000E+09     0.1000000000E+03
         0.1094000000E+09     0.1000000000E+03
         0.1095000000E+09     0.1000000000E+03
         0.1096000000E+09     0.1000000000E+03
         0.1097000000E+09     0.1000000000E+03
         0.1098000000E+09     0.1000000000E+03
         0.1099000000E+09     0.1000000000E+03
         0.1100000000E+09     0.1000000000E+03
         0.1101000000E+09     0.1000000000E+03
         0.1101000000E+09     0.1000000000E+03
         0.1102000000E+09     0.1000000000E+03
         0.1103000000E+09     0.1000000000E+03
         0.1104000000E+09     0.1000000000E+03
         0.1105000000E+09     0.1000000000E+03
         0.1106000000E+09     0.1000000000E+03
         0.1107000000E+09     0.1000000000E+03
         0.1107000000E+09     0.1000000000E+03
         0.1108000000E+09     0.1000000000E+03
         0.1109000000E+09     0.1000000000E+03
         0.1110000000E+09     0.1000000000E+03
         0.1111000000E+09     0.1000000000E+03
         0.1112000000E+09     0.1000000000E+03
         0.1113000000E+09     0.1000000000E+03
         0.1113000000E+09     0.1000000000E+03
         0.1114000000E+09     0.1000000000E+03
         0.1115000000E+09     0.1000000000E+03
         0.1116000000E+09     0.1000000000E+03
         0.1117000000E+09     0.1000000000E+03
         0.1118000000E+09     0.1000000000E+03
         0.1119000000E+09     0.1000000000E+03
         0.1120000000E+09     0.1000000000E+03
         0.1121000000E+09     0.1000000000E+03
         0.1122000000E+09     0.1000000000E+03
         0.1123000000E+09     0.1000000000E+03
         0.1123000000E+09     0.1000000000E+03
         0.1124000000E+09     0.1000000000E+03
         0.1125000000E+09     0.1000000000E+03
         0.1126000000E+09     0.1000000000E+03
         0.1127000000E+09     0.1000000000E+03
         0.1128000000E+09     0.1000000000E+03
         0.1129000000E+09     0.1000000000E+03
         0.1129000000E+09     0.1000000000E+03
         0.1130000000E+09     0.1000000000E+03
         0.1131000000E+09     0.1000000000E+03
         0.1132000000E+09     0.1000000000E+03
         0.1133000000E+09     0.1000000000E+03
         0.1134000000E+09     0.1000000000E+03
         0.1135000000E+09     0.1000000000E+03
         0.1135000000E+09     0.1000000000E+03
         0.1136000000E+09     0.1000000000E+03
         0.1137000000E+09     0.1000000000E+03
         0.1138000000E+09     0.1000000000E+03
         0.1139000000E+09     0.1000000000E+03
         0.1140000000E+09     0.1000000000E+03
         0.1141000000E+09     0.1000000000E+03
         0.1142000000E+09     0.1000000000E+03
         0.1143000000E+09     0.1000000000E+03
         0.1144000000E+09     0.1000000000E+03
         0.1145000000E+09     0.1000000000E+03
         0.1145000000E+09     0.1000000000E+03
         0.1146000000E+09     0.1000000000E+03
         0.1147000000E+09     0.1000000000E+03
         0.1148000000E+09     0.1000000000E+03
         0.1149000000E+09     0.1000000000E+03
         0.1150000000E+09     0.1000000000E+03
         0.1151000000E+09     0.1000000000E+03
         0.1151000000E+09     0.1000000000E+03
         0.1152000000E+09     0.1000000000E+03
         0.1153000000E+09     0.1000000000E+03
         0.1154000000E+09     0.1000000000E+03
         0.1155000000E+09     0.1000000000E+03
         0.1156000000E+09     0.1000000000E+03
         0.1157000000E+09     0.1000000000E+03
         0.1157000000E+09     0.1000000000E+03
         0.1158000000E+09     0.1000000000E+03
         0.1159000000E+09     0.1000000000E+03
         0.1160000000E+09     0.1000000000E+03
         0.1161000000E+09     0.1000000000E+03
         0.1162000000E+09     0.1000000000E+03
         0.1163000000E+09     0.1000000000E+03
         0.1164000000E+09     0.1000000000E+03
         0.1165000000E+09     0.1000000000E+03
         0.1166000000E+09     0.1000000000E+03
         0.1167000000E+09     0.1000000000E+03
         0.1167000000E+09     0.1000000000E+03
         0.1168000000E+09     0.1000000000E+03
         0.1169000000E+09     0.1000000000E+03
         0.1170000000E+09     0.1000000000E+03
         0.1171000000E+09     0.1000000000E+03
         0.1172000000E+09     0.1000000000E+03
         0.1173000000E+09     0.1000000000E+03
         0.1173000000E+09     0.1000000000E+03
         0.1174000000E+09     0.1000000000E+03
         0.1175000000E+09     0.1000000000E+03
         0.1176000000E+09     0.1000000000E+03
         0.1177000000E+09     0.1000000000E+03
         0.1178000000E+09     0.1000000000E+03
         0.1179000000E+09     0.1000000000E+03
         0.1179000000E+09     0.1000000000E+03
         0.1180000000E+09     0.1000000000E+03
         0.1181000000E+09     0.1000000000E+03
         0.1182000000E+09     0.1000000000E+03
         0.1183000000E+09     0.1000000000E+03
         0.1184000000E+09     0.1000000000E+03
         0.1185000000E+09     0.1000000000E+03
         0.1186000000E+09     0.1000000000E+03
         0.1187000000E+09     0.1000000000E+03
         0.1188000000E+09     0.1000000000E+03
         0.1189000000E+09     0.1000000000E+03
         0.1189000000E+09     0.1000000000E+03
         0.1190000000E+09     0.1000000000E+03
         0.1191000000E+09     0.1000000000E+03
         0.1192000000E+09     0.1000000000E+03
         0.1193000000E+09     0.1000000000E+03
         0.1194000000E+09     0.1000000000E+03
         0.1195000000E+09     0.1000000000E+03
         0.1195000000E+09     0.1000000000E+03
         0.1196000000E+09     0.1000000000E+03
         0.1197000000E+09     0.1000000000E+03
         0.1198000000E+09     0.1000000000E+03
         0.1199000000E+09     0.1000000000E+03
         0.1200000000E+09     0.1000000000E+03
         0.1201000000E+09     0.1000000000E+03
         0.1201000000E+09     0.1000000000E+03
         0.1202000000E+09     0.1000000000E+03
         0.1203000000E+09     0.1000000000E+03
         0.1204000000E+09     0.1000000000E+03
         0.1205000000E+09     0.1000000000E+03
         0.1206000000E+09     0.1000000000E+03
         0.1207000000E+09     0.1000000000E+03
         0.1208000000E+09     0.1000000000E+03
         0.1209000000E+09     0.1000000000E+03
         0.1210000000E+09     0.1000000000E+03
         0.1211000000E+09     0.1000000000E+03
         0.1211000000E+09     0.1000000000E+03
         0.1212000000E+09     0.1000000000E+03
         0.1213000000E+09     0.1000000000E+03
         0.1214000000E+09     0.1000000000E+03
         0.1215000000E+09     0.1000000000E+03
         0.1216000000E+09     0.1000000000E+03
         0.1217000000E+09     0.1000000000E+03
         0.1217000000E+09     0.1000000000E+03
         0.1218000000E+09     0.1000000000E+03
         0.1219000000E+09     0.1000000000E+03
         0.1220000000E+09     0.1000000000E+03
         0.1221000000E+09     0.1000000000E+03
         0.1222000000E+09     0.1000000000E+03
         0.1223000000E+09     0.1000000000E+03
         0.1223000000E+09     0.1000000000E+03
         0.1224000000E+09     0.1000000000E+03
         0.1225000000E+09     0.1000000000E+03
         0.1226000000E+09     0.1000000000E+03
         0.1227000000E+09     0.1000000000E+03
         0.1228000000E+09     0.1000000000E+03
         0.1229000000E+09     0.1000000000E+03
         0.1230000000E+09     0.1000000000E+03
         0.1231000000E+09     0.1000000000E+03
         0.1232000000E+09     0.1000000000E+03
         0.1233000000E+09     0.1000000000E+03
         0.1233000000E+09     0.1000000000E+03
         0.1234000000E+09     0.1000000000E+03
         0.1235000000E+09     0.1000000000E+03
         0.1236000000E+09     0.1000000000E+03
         0.1237000000E+09     0.1000000000E+03
         0.1238000000E+09     0.1000000000E+03
         0.1239000000E+09     0.1000000000E+03
         0.1239000000E+09     0.1000000000E+03
         0.1240000000E+09     0.1000000000E+03
         0.1241000000E+09     0.1000000000E+03
         0.1242000000E+09     0.1000000000E+03
         0.1243000000E+09     0.1000000000E+03
         0.1244000000E+09     0.1000000000E+03
         0.1245000000E+09     0.1000000000E+03
         0.1245000000E+09     0.1000000000E+03
         0.1246000000E+09     0.1000000000E+03
         0.1247000000E+09     0.1000000000E+03
         0.1248000000E+09     0.1000000000E+03
         0.1249000000E+09     0.1000000000E+03
         0.1250000000E+09     0.1000000000E+03
         0.1251000000E+09     0.1000000000E+03
         0.1252000000E+09     0.1000000000E+03
         0.1253000000E+09     0.1000000000E+03
         0.1254000000E+09     0.1000000000E+03
         0.1255000000E+09     0.1000000000E+03
         0.1255000000E+09     0.1000000000E+03
         0.1256000000E+09     0.1000000000E+03
         0.1257000000E+09     0.1000000000E+03
         0.1258000000E+09     0.1000000000E+03
         0.1259000000E+09     0.1000000000E+03
         0.1260000000E+09     0.1000000000E+03



            AREAL INFILTRATION RATE
 READING ON UNIT   19 WITH FORMAT: (10F4.0)            

            1           2           3           4           5           6           7           8           9          10
 ........................................................................................................................
   1   1.0000E-10  2.0000E-10   0.000       0.000       0.000       0.000       0.000       0.000       0.000       0.000    
   2   2.0000E-10  1.0000E-10  2.0000E-10   0.000       0.000      8.0000E-10  8.0000E-10  5.0000E-10   0.000       0.000    
   3    0.000      5.0000E-10  1.0000E-10  1.0000E-10  8.0000E-10  8.0000E-10  5.0000E-10  5.0000E-10   0.000       0.000    
   4   8.0000E-10  5.0000E-10  1.0000E-10  1.0000E-10  1.0000E-10  1.0000E-10  1.0000E-10  1.0000E-10  2.0000E-10   0.000    
   5   8.0000E-10  5.0000E-10  1.0000E-10  1.0000E-10  1.0000E-10  1.0000E-10  1.0000E-10  1.0000E-10  1.0000E-10  1.0000E-10
   6   8.0000E-10  5.0000E-10  5.0000E-10  2.0000E-10  2.0000E-10  1.0000E-10  1.0000E-10  1.0000E-10  1.0000E-10  5.0000E-10
   7   8.0000E-10  5.0000E-10  5.0000E-10  2.0000E-10  2.0000E-10  1.0000E-10  1.0000E-10  2.0000E-10  2.0000E-10   0.000    
   8    0.000      5.0000E-10  5.0000E-10  2.0000E-10  2.0000E-10  1.0000E-10  1.0000E-10  2.0000E-10  5.0000E-10   0.000    
   9    0.000      5.0000E-10  5.0000E-10  2.0000E-10  2.0000E-10  1.0000E-10  1.0000E-10  2.0000E-10  5.0000E-10   0.000    
  10    0.000      5.0000E-10  5.0000E-10  2.0000E-10  2.0000E-10  1.0000E-10  1.0000E-10  2.0000E-10  5.0000E-10  8.0000E-10
  11    0.000      1.0000E-10  1.0000E-10  1.0000E-10  1.0000E-10  1.0000E-10  1.0000E-10  2.0000E-10  5.0000E-10   0.000    
  12   1.0000E-10  1.0000E-10  1.0000E-10  1.0000E-10  1.0000E-10  1.0000E-10  1.0000E-10  1.0000E-10  2.0000E-10   0.000    
  13   1.0000E-10  1.0000E-10  2.0000E-10  2.0000E-10  2.0000E-10  2.0000E-10  2.0000E-10  1.0000E-10  1.0000E-10   0.000    
  14    0.000      2.0000E-10  5.0000E-10  5.0000E-10  5.0000E-10  5.0000E-10  5.0000E-10  2.0000E-10  1.0000E-10   0.000    
  15    0.000       0.000      8.0000E-10  8.0000E-10  8.0000E-10  8.0000E-10   0.000       0.000       0.000       0.000    

                  ET RATE =  1.000000E-08

      ET EXTINCTION DEPTH =  0.500000    

 EXTINCTION WATER CONTENT =  0.200000    

EXTINCTION WATER CONTENT FOR CELL AT ROW     1, COLUMN     1 IS LESS THAN RESIDUAL WATER CONTENT-- SETTING EXTINCTION WATER CONTENT EQUAL TO RESIDUAL WATER CONTENT

EXTINCTION WATER CONTENT FOR CELL AT ROW     1, COLUMN     2 IS LESS THAN RESIDUAL WATER CONTENT-- SETTING EXTINCTION WATER CONTENT EQUAL TO RESIDUAL WATER CONTENT

EXTINCTION WATER CONTENT FOR CELL AT ROW     2, COLUMN     1 IS LESS THAN RESIDUAL WATER CONTENT-- SETTING EXTINCTION WATER CONTENT EQUAL TO RESIDUAL WATER CONTENT

EXTINCTION WATER CONTENT FOR CELL AT ROW     2, COLUMN     2 IS LESS THAN RESIDUAL WATER CONTENT-- SETTING EXTINCTION WATER CONTENT EQUAL TO RESIDUAL WATER CONTENT

EXTINCTION WATER CONTENT FOR CELL AT ROW     2, COLUMN     3 IS LESS THAN RESIDUAL WATER CONTENT-- SETTING EXTINCTION WATER CONTENT EQUAL TO RESIDUAL WATER CONTENT

EXTINCTION WATER CONTENT FOR CELL AT ROW     2, COLUMN     6 IS LESS THAN RESIDUAL WATER CONTENT-- SETTING EXTINCTION WATER CONTENT EQUAL TO RESIDUAL WATER CONTENT

EXTINCTION WATER CONTENT FOR CELL AT ROW     2, COLUMN     7 IS LESS THAN RESIDUAL WATER CONTENT-- SETTING EXTINCTION WATER CONTENT EQUAL TO RESIDUAL WATER CONTENT

EXTINCTION WATER CONTENT FOR CELL AT ROW     2, COLUMN     8 IS LESS THAN RESIDUAL WATER CONTENT-- SETTING EXTINCTION WATER CONTENT EQUAL TO RESIDUAL WATER CONTENT

EXTINCTION WATER CONTENT FOR CELL AT ROW     3, COLUMN     2 IS LESS THAN RESIDUAL WATER CONTENT-- SETTING EXTINCTION WATER CONTENT EQUAL TO RESIDUAL WATER CONTENT

EXTINCTION WATER CONTENT FOR CELL AT ROW     3, COLUMN     3 IS LESS THAN RESIDUAL WATER CONTENT-- SETTING EXTINCTION WATER CONTENT EQUAL TO RESIDUAL WATER CONTENT

EXTINCTION WATER CONTENT FOR CELL AT ROW     3, COLUMN     4 IS LESS THAN RESIDUAL WATER CONTENT-- SETTING EXTINCTION WATER CONTENT EQUAL TO RESIDUAL WATER CONTENT

EXTINCTION WATER CONTENT FOR CELL AT ROW     3, COLUMN     5 IS LESS THAN RESIDUAL WATER CONTENT-- SETTING EXTINCTION WATER CONTENT EQUAL TO RESIDUAL WATER CONTENT

EXTINCTION WATER CONTENT FOR CELL AT ROW     3, COLUMN     6 IS LESS THAN RESIDUAL WATER CONTENT-- SETTING EXTINCTION WATER CONTENT EQUAL TO RESIDUAL WATER CONTENT

EXTINCTION WATER CONTENT FOR CELL AT ROW     3, COLUMN     7 IS LESS THAN RESIDUAL WATER CONTENT-- SETTING EXTINCTION WATER CONTENT EQUAL TO RESIDUAL WATER CONTENT

EXTINCTION WATER CONTENT FOR CELL AT ROW     3, COLUMN     8 IS LESS THAN RESIDUAL WATER CONTENT-- SETTING EXTINCTION WATER CONTENT EQUAL TO RESIDUAL WATER CONTENT

EXTINCTION WATER CONTENT FOR CELL AT ROW     4, COLUMN     1 IS LESS THAN RESIDUAL WATER CONTENT-- SETTING EXTINCTION WATER CONTENT EQUAL TO RESIDUAL WATER CONTENT

EXTINCTION WATER CONTENT FOR CELL AT ROW     4, COLUMN     2 IS LESS THAN RESIDUAL WATER CONTENT-- SETTING EXTINCTION WATER CONTENT EQUAL TO RESIDUAL WATER CONTENT

EXTINCTION WATER CONTENT FOR CELL AT ROW     4, COLUMN     3 IS LESS THAN RESIDUAL WATER CONTENT-- SETTING EXTINCTION WATER CONTENT EQUAL TO RESIDUAL WATER CONTENT

EXTINCTION WATER CONTENT FOR CELL AT ROW     4, COLUMN     4 IS LESS THAN RESIDUAL WATER CONTENT-- SETTING EXTINCTION WATER CONTENT EQUAL TO RESIDUAL WATER CONTENT

EXTINCTION WATER CONTENT FOR CELL AT ROW     4, COLUMN     5 IS LESS THAN RESIDUAL WATER CONTENT-- SETTING EXTINCTION WATER CONTENT EQUAL TO RESIDUAL WATER CONTENT

EXTINCTION WATER CONTENT FOR CELL AT ROW     4, COLUMN     6 IS LESS THAN RESIDUAL WATER CONTENT-- SETTING EXTINCTION WATER CONTENT EQUAL TO RESIDUAL WATER CONTENT

EXTINCTION WATER CONTENT FOR CELL AT ROW     4, COLUMN     7 IS LESS THAN RESIDUAL WATER CONTENT-- SETTING EXTINCTION WATER CONTENT EQUAL TO RESIDUAL WATER CONTENT

EXTINCTION WATER CONTENT FOR CELL AT ROW     4, COLUMN     8 IS LESS THAN RESIDUAL WATER CONTENT-- SETTING EXTINCTION WATER CONTENT EQUAL TO RESIDUAL WATER CONTENT

EXTINCTION WATER CONTENT FOR CELL AT ROW     4, COLUMN     9 IS LESS THAN RESIDUAL WATER CONTENT-- SETTING EXTINCTION WATER CONTENT EQUAL TO RESIDUAL WATER CONTENT

EXTINCTION WATER CONTENT FOR CELL AT ROW     5, COLUMN     1 IS LESS THAN RESIDUAL WATER CONTENT-- SETTING EXTINCTION WATER CONTENT EQUAL TO RESIDUAL WATER CONTENT

EXTINCTION WATER CONTENT FOR CELL AT ROW     5, COLUMN     2 IS LESS THAN RESIDUAL WATER CONTENT-- SETTING EXTINCTION WATER CONTENT EQUAL TO RESIDUAL WATER CONTENT

EXTINCTION WATER CONTENT FOR CELL AT ROW     5, COLUMN     3 IS LESS THAN RESIDUAL WATER CONTENT-- SETTING EXTINCTION WATER CONTENT EQUAL TO RESIDUAL WATER CONTENT

EXTINCTION WATER CONTENT FOR CELL AT ROW     5, COLUMN     4 IS LESS THAN RESIDUAL WATER CONTENT-- SETTING EXTINCTION WATER CONTENT EQUAL TO RESIDUAL WATER CONTENT

EXTINCTION WATER CONTENT FOR CELL AT ROW     5, COLUMN     5 IS LESS THAN RESIDUAL WATER CONTENT-- SETTING EXTINCTION WATER CONTENT EQUAL TO RESIDUAL WATER CONTENT

EXTINCTION WATER CONTENT FOR CELL AT ROW     5, COLUMN     6 IS LESS THAN RESIDUAL WATER CONTENT-- SETTING EXTINCTION WATER CONTENT EQUAL TO RESIDUAL WATER CONTENT

EXTINCTION WATER CONTENT FOR CELL AT ROW     5, COLUMN     7 IS LESS THAN RESIDUAL WATER CONTENT-- SETTING EXTINCTION WATER CONTENT EQUAL TO RESIDUAL WATER CONTENT

EXTINCTION WATER CONTENT FOR CELL AT ROW     5, COLUMN     8 IS LESS THAN RESIDUAL WATER CONTENT-- SETTING EXTINCTION WATER CONTENT EQUAL TO RESIDUAL WATER CONTENT

EXTINCTION WATER CONTENT FOR CELL AT ROW     5, COLUMN     9 IS LESS THAN RESIDUAL WATER CONTENT-- SETTING EXTINCTION WATER CONTENT EQUAL TO RESIDUAL WATER CONTENT

EXTINCTION WATER CONTENT FOR CELL AT ROW     5, COLUMN    10 IS LESS THAN RESIDUAL WATER CONTENT-- SETTING EXTINCTION WATER CONTENT EQUAL TO RESIDUAL WATER CONTENT

EXTINCTION WATER CONTENT FOR CELL AT ROW     6, COLUMN     1 IS LESS THAN RESIDUAL WATER CONTENT-- SETTING EXTINCTION WATER CONTENT EQUAL TO RESIDUAL WATER CONTENT

EXTINCTION WATER CONTENT FOR CELL AT ROW     6, COLUMN     2 IS LESS THAN RESIDUAL WATER CONTENT-- SETTING EXTINCTION WATER CONTENT EQUAL TO RESIDUAL WATER CONTENT

EXTINCTION WATER CONTENT FOR CELL AT ROW     6, COLUMN     3 IS LESS THAN RESIDUAL WATER CONTENT-- SETTING EXTINCTION WATER CONTENT EQUAL TO RESIDUAL WATER CONTENT

EXTINCTION WATER CONTENT FOR CELL AT ROW     6, COLUMN     4 IS LESS THAN RESIDUAL WATER CONTENT-- SETTING EXTINCTION WATER CONTENT EQUAL TO RESIDUAL WATER CONTENT

EXTINCTION WATER CONTENT FOR CELL AT ROW     6, COLUMN     5 IS LESS THAN RESIDUAL WATER CONTENT-- SETTING EXTINCTION WATER CONTENT EQUAL TO RESIDUAL WATER CONTENT

EXTINCTION WATER CONTENT FOR CELL AT ROW     6, COLUMN     6 IS LESS THAN RESIDUAL WATER CONTENT-- SETTING EXTINCTION WATER CONTENT EQUAL TO RESIDUAL WATER CONTENT

EXTINCTION WATER CONTENT FOR CELL AT ROW     6, COLUMN     7 IS LESS THAN RESIDUAL WATER CONTENT-- SETTING EXTINCTION WATER CONTENT EQUAL TO RESIDUAL WATER CONTENT

EXTINCTION WATER CONTENT FOR CELL AT ROW     6, COLUMN     8 IS LESS THAN RESIDUAL WATER CONTENT-- SETTING EXTINCTION WATER CONTENT EQUAL TO RESIDUAL WATER CONTENT

EXTINCTION WATER CONTENT FOR CELL AT ROW     6, COLUMN     9 IS LESS THAN RESIDUAL WATER CONTENT-- SETTING EXTINCTION WATER CONTENT EQUAL TO RESIDUAL WATER CONTENT

EXTINCTION WATER CONTENT FOR CELL AT ROW     6, COLUMN    10 IS LESS THAN RESIDUAL WATER CONTENT-- SETTING EXTINCTION WATER CONTENT EQUAL TO RESIDUAL WATER CONTENT

EXTINCTION WATER CONTENT FOR CELL AT ROW     7, COLUMN     1 IS LESS THAN RESIDUAL WATER CONTENT-- SETTING EXTINCTION WATER CONTENT EQUAL TO RESIDUAL WATER CONTENT

EXTINCTION WATER CONTENT FOR CELL AT ROW     7, COLUMN     2 IS LESS THAN RESIDUAL WATER CONTENT-- SETTING EXTINCTION WATER CONTENT EQUAL TO RESIDUAL WATER CONTENT

EXTINCTION WATER CONTENT FOR CELL AT ROW     7, COLUMN     3 IS LESS THAN RESIDUAL WATER CONTENT-- SETTING EXTINCTION WATER CONTENT EQUAL TO RESIDUAL WATER CONTENT

EXTINCTION WATER CONTENT FOR CELL AT ROW     7, COLUMN     4 IS LESS THAN RESIDUAL WATER CONTENT-- SETTING EXTINCTION WATER CONTENT EQUAL TO RESIDUAL WATER CONTENT

EXTINCTION WATER CONTENT FOR CELL AT ROW     7, COLUMN     5 IS LESS THAN RESIDUAL WATER CONTENT-- SETTING EXTINCTION WATER CONTENT EQUAL TO RESIDUAL WATER CONTENT

EXTINCTION WATER CONTENT FOR CELL AT ROW     7, COLUMN     6 IS LESS THAN RESIDUAL WATER CONTENT-- SETTING EXTINCTION WATER CONTENT EQUAL TO RESIDUAL WATER CONTENT

EXTINCTION WATER CONTENT FOR CELL AT ROW     7, COLUMN     7 IS LESS THAN RESIDUAL WATER CONTENT-- SETTING EXTINCTION WATER CONTENT EQUAL TO RESIDUAL WATER CONTENT

EXTINCTION WATER CONTENT FOR CELL AT ROW     7, COLUMN     8 IS LESS THAN RESIDUAL WATER CONTENT-- SETTING EXTINCTION WATER CONTENT EQUAL TO RESIDUAL WATER CONTENT

EXTINCTION WATER CONTENT FOR CELL AT ROW     7, COLUMN     9 IS LESS THAN RESIDUAL WATER CONTENT-- SETTING EXTINCTION WATER CONTENT EQUAL TO RESIDUAL WATER CONTENT

EXTINCTION WATER CONTENT FOR CELL AT ROW     8, COLUMN     2 IS LESS THAN RESIDUAL WATER CONTENT-- SETTING EXTINCTION WATER CONTENT EQUAL TO RESIDUAL WATER CONTENT

EXTINCTION WATER CONTENT FOR CELL AT ROW     8, COLUMN     3 IS LESS THAN RESIDUAL WATER CONTENT-- SETTING EXTINCTION WATER CONTENT EQUAL TO RESIDUAL WATER CONTENT

EXTINCTION WATER CONTENT FOR CELL AT ROW     8, COLUMN     4 IS LESS THAN RESIDUAL WATER CONTENT-- SETTING EXTINCTION WATER CONTENT EQUAL TO RESIDUAL WATER CONTENT

EXTINCTION WATER CONTENT FOR CELL AT ROW     8, COLUMN     5 IS LESS THAN RESIDUAL WATER CONTENT-- SETTING EXTINCTION WATER CONTENT EQUAL TO RESIDUAL WATER CONTENT

EXTINCTION WATER CONTENT FOR CELL AT ROW     8, COLUMN     6 IS LESS THAN RESIDUAL WATER CONTENT-- SETTING EXTINCTION WATER CONTENT EQUAL TO RESIDUAL WATER CONTENT

EXTINCTION WATER CONTENT FOR CELL AT ROW     8, COLUMN     7 IS LESS THAN RESIDUAL WATER CONTENT-- SETTING EXTINCTION WATER CONTENT EQUAL TO RESIDUAL WATER CONTENT

EXTINCTION WATER CONTENT FOR CELL AT ROW     8, COLUMN     8 IS LESS THAN RESIDUAL WATER CONTENT-- SETTING EXTINCTION WATER CONTENT EQUAL TO RESIDUAL WATER CONTENT

EXTINCTION WATER CONTENT FOR CELL AT ROW     8, COLUMN     9 IS LESS THAN RESIDUAL WATER CONTENT-- SETTING EXTINCTION WATER CONTENT EQUAL TO RESIDUAL WATER CONTENT

EXTINCTION WATER CONTENT FOR CELL AT ROW     9, COLUMN     2 IS LESS THAN RESIDUAL WATER CONTENT-- SETTING EXTINCTION WATER CONTENT EQUAL TO RESIDUAL WATER CONTENT

EXTINCTION WATER CONTENT FOR CELL AT ROW     9, COLUMN     3 IS LESS THAN RESIDUAL WATER CONTENT-- SETTING EXTINCTION WATER CONTENT EQUAL TO RESIDUAL WATER CONTENT

EXTINCTION WATER CONTENT FOR CELL AT ROW     9, COLUMN     4 IS LESS THAN RESIDUAL WATER CONTENT-- SETTING EXTINCTION WATER CONTENT EQUAL TO RESIDUAL WATER CONTENT

EXTINCTION WATER CONTENT FOR CELL AT ROW     9, COLUMN     5 IS LESS THAN RESIDUAL WATER CONTENT-- SETTING EXTINCTION WATER CONTENT EQUAL TO RESIDUAL WATER CONTENT

EXTINCTION WATER CONTENT FOR CELL AT ROW     9, COLUMN     6 IS LESS THAN RESIDUAL WATER CONTENT-- SETTING EXTINCTION WATER CONTENT EQUAL TO RESIDUAL WATER CONTENT

EXTINCTION WATER CONTENT FOR CELL AT ROW     9, COLUMN     7 IS LESS THAN RESIDUAL WATER CONTENT-- SETTING EXTINCTION WATER CONTENT EQUAL TO RESIDUAL WATER CONTENT

EXTINCTION WATER CONTENT FOR CELL AT ROW     9, COLUMN     8 IS LESS THAN RESIDUAL WATER CONTENT-- SETTING EXTINCTION WATER CONTENT EQUAL TO RESIDUAL WATER CONTENT

EXTINCTION WATER CONTENT FOR CELL AT ROW     9, COLUMN     9 IS LESS THAN RESIDUAL WATER CONTENT-- SETTING EXTINCTION WATER CONTENT EQUAL TO RESIDUAL WATER CONTENT

EXTINCTION WATER CONTENT FOR CELL AT ROW    10, COLUMN     2 IS LESS THAN RESIDUAL WATER CONTENT-- SETTING EXTINCTION WATER CONTENT EQUAL TO RESIDUAL WATER CONTENT

EXTINCTION WATER CONTENT FOR CELL AT ROW    10, COLUMN     3 IS LESS THAN RESIDUAL WATER CONTENT-- SETTING EXTINCTION WATER CONTENT EQUAL TO RESIDUAL WATER CONTENT

EXTINCTION WATER CONTENT FOR CELL AT ROW    10, COLUMN     4 IS LESS THAN RESIDUAL WATER CONTENT-- SETTING EXTINCTION WATER CONTENT EQUAL TO RESIDUAL WATER CONTENT

EXTINCTION WATER CONTENT FOR CELL AT ROW    10, COLUMN     5 IS LESS THAN RESIDUAL WATER CONTENT-- SETTING EXTINCTION WATER CONTENT EQUAL TO RESIDUAL WATER CONTENT

EXTINCTION WATER CONTENT FOR CELL AT ROW    10, COLUMN     6 IS LESS THAN RESIDUAL WATER CONTENT-- SETTING EXTINCTION WATER CONTENT EQUAL TO RESIDUAL WATER CONTENT

EXTINCTION WATER CONTENT FOR CELL AT ROW    10, COLUMN     7 IS LESS THAN RESIDUAL WATER CONTENT-- SETTING EXTINCTION WATER CONTENT EQUAL TO RESIDUAL WATER CONTENT

EXTINCTION WATER CONTENT FOR CELL AT ROW    10, COLUMN     8 IS LESS THAN RESIDUAL WATER CONTENT-- SETTING EXTINCTION WATER CONTENT EQUAL TO RESIDUAL WATER CONTENT

EXTINCTION WATER CONTENT FOR CELL AT ROW    10, COLUMN     9 IS LESS THAN RESIDUAL WATER CONTENT-- SETTING EXTINCTION WATER CONTENT EQUAL TO RESIDUAL WATER CONTENT

EXTINCTION WATER CONTENT FOR CELL AT ROW    10, COLUMN    10 IS LESS THAN RESIDUAL WATER CONTENT-- SETTING EXTINCTION WATER CONTENT EQUAL TO RESIDUAL WATER CONTENT

EXTINCTION WATER CONTENT FOR CELL AT ROW    11, COLUMN     2 IS LESS THAN RESIDUAL WATER CONTENT-- SETTING EXTINCTION WATER CONTENT EQUAL TO RESIDUAL WATER CONTENT

EXTINCTION WATER CONTENT FOR CELL AT ROW    11, COLUMN     3 IS LESS THAN RESIDUAL WATER CONTENT-- SETTING EXTINCTION WATER CONTENT EQUAL TO RESIDUAL WATER CONTENT

EXTINCTION WATER CONTENT FOR CELL AT ROW    11, COLUMN     4 IS LESS THAN RESIDUAL WATER CONTENT-- SETTING EXTINCTION WATER CONTENT EQUAL TO RESIDUAL WATER CONTENT

EXTINCTION WATER CONTENT FOR CELL AT ROW    11, COLUMN     5 IS LESS THAN RESIDUAL WATER CONTENT-- SETTING EXTINCTION WATER CONTENT EQUAL TO RESIDUAL WATER CONTENT

EXTINCTION WATER CONTENT FOR CELL AT ROW    11, COLUMN     6 IS LESS THAN RESIDUAL WATER CONTENT-- SETTING EXTINCTION WATER CONTENT EQUAL TO RESIDUAL WATER CONTENT

EXTINCTION WATER CONTENT FOR CELL AT ROW    11, COLUMN     7 IS LESS THAN RESIDUAL WATER CONTENT-- SETTING EXTINCTION WATER CONTENT EQUAL TO RESIDUAL WATER CONTENT

EXTINCTION WATER CONTENT FOR CELL AT ROW    11, COLUMN     8 IS LESS THAN RESIDUAL WATER CONTENT-- SETTING EXTINCTION WATER CONTENT EQUAL TO RESIDUAL WATER CONTENT

EXTINCTION WATER CONTENT FOR CELL AT ROW    11, COLUMN     9 IS LESS THAN RESIDUAL WATER CONTENT-- SETTING EXTINCTION WATER CONTENT EQUAL TO RESIDUAL WATER CONTENT

EXTINCTION WATER CONTENT FOR CELL AT ROW    12, COLUMN     1 IS LESS THAN RESIDUAL WATER CONTENT-- SETTING EXTINCTION WATER CONTENT EQUAL TO RESIDUAL WATER CONTENT

EXTINCTION WATER CONTENT FOR CELL AT ROW    12, COLUMN     2 IS LESS THAN RESIDUAL WATER CONTENT-- SETTING EXTINCTION WATER CONTENT EQUAL TO RESIDUAL WATER CONTENT

EXTINCTION WATER CONTENT FOR CELL AT ROW    12, COLUMN     3 IS LESS THAN RESIDUAL WATER CONTENT-- SETTING EXTINCTION WATER CONTENT EQUAL TO RESIDUAL WATER CONTENT

EXTINCTION WATER CONTENT FOR CELL AT ROW    12, COLUMN     4 IS LESS THAN RESIDUAL WATER CONTENT-- SETTING EXTINCTION WATER CONTENT EQUAL TO RESIDUAL WATER CONTENT

EXTINCTION WATER CONTENT FOR CELL AT ROW    12, COLUMN     5 IS LESS THAN RESIDUAL WATER CONTENT-- SETTING EXTINCTION WATER CONTENT EQUAL TO RESIDUAL WATER CONTENT

EXTINCTION WATER CONTENT FOR CELL AT ROW    12, COLUMN     6 IS LESS THAN RESIDUAL WATER CONTENT-- SETTING EXTINCTION WATER CONTENT EQUAL TO RESIDUAL WATER CONTENT

EXTINCTION WATER CONTENT FOR CELL AT ROW    12, COLUMN     7 IS LESS THAN RESIDUAL WATER CONTENT-- SETTING EXTINCTION WATER CONTENT EQUAL TO RESIDUAL WATER CONTENT

EXTINCTION WATER CONTENT FOR CELL AT ROW    12, COLUMN     8 IS LESS THAN RESIDUAL WATER CONTENT-- SETTING EXTINCTION WATER CONTENT EQUAL TO RESIDUAL WATER CONTENT

EXTINCTION WATER CONTENT FOR CELL AT ROW    12, COLUMN     9 IS LESS THAN RESIDUAL WATER CONTENT-- SETTING EXTINCTION WATER CONTENT EQUAL TO RESIDUAL WATER CONTENT

EXTINCTION WATER CONTENT FOR CELL AT ROW    13, COLUMN     1 IS LESS THAN RESIDUAL WATER CONTENT-- SETTING EXTINCTION WATER CONTENT EQUAL TO RESIDUAL WATER CONTENT

EXTINCTION WATER CONTENT FOR CELL AT ROW    13, COLUMN     2 IS LESS THAN RESIDUAL WATER CONTENT-- SETTING EXTINCTION WATER CONTENT EQUAL TO RESIDUAL WATER CONTENT

EXTINCTION WATER CONTENT FOR CELL AT ROW    13, COLUMN     3 IS LESS THAN RESIDUAL WATER CONTENT-- SETTING EXTINCTION WATER CONTENT EQUAL TO RESIDUAL WATER CONTENT

EXTINCTION WATER CONTENT FOR CELL AT ROW    13, COLUMN     4 IS LESS THAN RESIDUAL WATER CONTENT-- SETTING EXTINCTION WATER CONTENT EQUAL TO RESIDUAL WATER CONTENT

EXTINCTION WATER CONTENT FOR CELL AT ROW    13, COLUMN     5 IS LESS THAN RESIDUAL WATER CONTENT-- SETTING EXTINCTION WATER CONTENT EQUAL TO RESIDUAL WATER CONTENT

EXTINCTION WATER CONTENT FOR CELL AT ROW    13, COLUMN     6 IS LESS THAN RESIDUAL WATER CONTENT-- SETTING EXTINCTION WATER CONTENT EQUAL TO RESIDUAL WATER CONTENT

EXTINCTION WATER CONTENT FOR CELL AT ROW    13, COLUMN     7 IS LESS THAN RESIDUAL WATER CONTENT-- SETTING EXTINCTION WATER CONTENT EQUAL TO RESIDUAL WATER CONTENT

EXTINCTION WATER CONTENT FOR CELL AT ROW    13, COLUMN     8 IS LESS THAN RESIDUAL WATER CONTENT-- SETTING EXTINCTION WATER CONTENT EQUAL TO RESIDUAL WATER CONTENT

EXTINCTION WATER CONTENT FOR CELL AT ROW    13, COLUMN     9 IS LESS THAN RESIDUAL WATER CONTENT-- SETTING EXTINCTION WATER CONTENT EQUAL TO RESIDUAL WATER CONTENT

EXTINCTION WATER CONTENT FOR CELL AT ROW    14, COLUMN     2 IS LESS THAN RESIDUAL WATER CONTENT-- SETTING EXTINCTION WATER CONTENT EQUAL TO RESIDUAL WATER CONTENT

EXTINCTION WATER CONTENT FOR CELL AT ROW    14, COLUMN     3 IS LESS THAN RESIDUAL WATER CONTENT-- SETTING EXTINCTION WATER CONTENT EQUAL TO RESIDUAL WATER CONTENT

EXTINCTION WATER CONTENT FOR CELL AT ROW    14, COLUMN     4 IS LESS THAN RESIDUAL WATER CONTENT-- SETTING EXTINCTION WATER CONTENT EQUAL TO RESIDUAL WATER CONTENT

EXTINCTION WATER CONTENT FOR CELL AT ROW    14, COLUMN     5 IS LESS THAN RESIDUAL WATER CONTENT-- SETTING EXTINCTION WATER CONTENT EQUAL TO RESIDUAL WATER CONTENT

EXTINCTION WATER CONTENT FOR CELL AT ROW    14, COLUMN     6 IS LESS THAN RESIDUAL WATER CONTENT-- SETTING EXTINCTION WATER CONTENT EQUAL TO RESIDUAL WATER CONTENT

EXTINCTION WATER CONTENT FOR CELL AT ROW    14, COLUMN     7 IS LESS THAN RESIDUAL WATER CONTENT-- SETTING EXTINCTION WATER CONTENT EQUAL TO RESIDUAL WATER CONTENT

EXTINCTION WATER CONTENT FOR CELL AT ROW    14, COLUMN     8 IS LESS THAN RESIDUAL WATER CONTENT-- SETTING EXTINCTION WATER CONTENT EQUAL TO RESIDUAL WATER CONTENT

EXTINCTION WATER CONTENT FOR CELL AT ROW    14, COLUMN     9 IS LESS THAN RESIDUAL WATER CONTENT-- SETTING EXTINCTION WATER CONTENT EQUAL TO RESIDUAL WATER CONTENT

EXTINCTION WATER CONTENT FOR CELL AT ROW    15, COLUMN     3 IS LESS THAN RESIDUAL WATER CONTENT-- SETTING EXTINCTION WATER CONTENT EQUAL TO RESIDUAL WATER CONTENT

EXTINCTION WATER CONTENT FOR CELL AT ROW    15, COLUMN     4 IS LESS THAN RESIDUAL WATER CONTENT-- SETTING EXTINCTION WATER CONTENT EQUAL TO RESIDUAL WATER CONTENT

EXTINCTION WATER CONTENT FOR CELL AT ROW    15, COLUMN     5 IS LESS THAN RESIDUAL WATER CONTENT-- SETTING EXTINCTION WATER CONTENT EQUAL TO RESIDUAL WATER CONTENT

EXTINCTION WATER CONTENT FOR CELL AT ROW    15, COLUMN     6 IS LESS THAN RESIDUAL WATER CONTENT-- SETTING EXTINCTION WATER CONTENT EQUAL TO RESIDUAL WATER CONTENT

       AIR ENTRY PRESSURE =  -1.10000    

            ROOT PRESSURE =  -75.0000    

            ROOT ACTIVITY =   1.00000    
 # AG segment list

 PROCESSING SEGMENT LIST

 FINISHED READING SEGMENT LIST
 # AG well list

 PROCESSING WELL LIST

 LAYER   ROW   COL   MAX STRESS RATE         
 --------------------------------------------
      1      1      6      4      -100.0    
      2      1      6      5      -100.0    
      3      1      7      4      -100.0    
      4      1      7      5      -100.0    
      5      1      8      4      -100.0    
      6      1      8      5      -100.0    

 FINISHED READING WELL LIST

      6 WELLS

 PROCESSING AG STRESS PERIOD DATA
 # AG stress period

 READING AG STRESS PERIOD DATA

 READING IRRIGATION SEGMENT

 READING IRRIGATION WELL

 READING SUPPLEMENTAL WELL

 END PROCESSING AG STRESS PERIOD DATA OPTIONS
 
 SOLVING FOR HEAD 
                                                   Max.-Head-Change                         Max.-Flux-Residual
  Residual-Control   Outer-Iter.   Inner-Iter.     Column Row Layer    Maximum-Head-Change  Column Row Layer    Maximum-Flux-Residual          L2-NORM 
          0                 1           6             2    2     1      -0.2843914191E+02       3    3    1        -0.3360741367E+01      0.9336255202E+01
          0                 2           6             1    1     1      -0.3130416779E+02       1   13    1        -0.6347781745E+02      0.6369041869E+02
          0                 3           5             1    1     1      -0.1456238505E+01       6   13    1        -0.2214092883E+01      0.3433615922E+01
          0                 4           5             5   13     1      -0.1645980091E+00       5   13    1        -0.3292041480E+00      0.3977240951E+00
          0                 5           4             5   14     1       0.3281686166E-01       5   13    1         0.1669597068E-01      0.2767752842E-01
          0                 6           2             5   14     1      -0.1281592110E-02       5   13    1        -0.6694907493E-03      0.2031367476E-02
          0                 7           1             5   10     1       0.1514216708E-04       5   10    1         0.2520492239E-04      0.8039520649E-04

    ------------------------------------------------
       NWT REQUIRED            7 OUTER ITERATIONS 
       AND A TOTAL OF         29 INNER ITERATIONS.
    ------------------------------------------------

 OUTPUT CONTROL FOR STRESS PERIOD    1   TIME STEP    1
    PRINT BUDGET
    PRINT HEAD FOR ALL LAYERS
    SAVE BUDGET
    SAVE HEAD FOR ALL LAYERS
 UBDSV2 SAVING "   CONSTANT HEAD" ON UNIT 102 AT TIME STEP  1, STRESS PERIOD   1
 UBDSV1 SAVING "FLOW RIGHT FACE " ON UNIT 102 AT TIME STEP  1, STRESS PERIOD   1
 UBDSV1 SAVING "FLOW FRONT FACE " ON UNIT 102 AT TIME STEP  1, STRESS PERIOD   1

  HEAD DEP BOUNDS   PERIOD    1   STEP     1
 BOUNDARY      1   LAYER   1   ROW    13   COL     1   RATE   -0.287059    
 BOUNDARY      2   LAYER   1   ROW    14   COL     9   RATE    0.285620    



 STREAM LISTING     PERIOD      1   STEP        1

 LAYER ROW COL. STREAM  RCH.  FLOW INTO     FLOW TO   FLOW OUT OF   OVRLND.     DIRECT     STREAM       STREAM     STREAM     STREAM   STREAMBED  STREAMBED
                SEG.NO.  NO.  STRM. RCH.    AQUIFER    STRM. RCH.    RUNOFF     PRECIP       ET          HEAD       DEPTH      WIDTH   CONDCTNC.   GRADIENT

   1    1    1     1     1    3.7500E+00  8.5597E-02   3.6644E+00  0.000E+00  0.000E+00  0.000E+00  1.09373E+03  6.817E-01  5.166E+00  2.325E-02  1.227E+00
   1    2    2     1     2    3.6644E+00  1.3158E-01   3.5328E+00  0.000E+00  0.000E+00  0.000E+00  1.08873E+03  6.747E-01  5.115E+00  3.581E-02  1.225E+00
   1    3    3     1     3    3.5328E+00  1.1125E-01   3.4216E+00  0.000E+00  0.000E+00  0.000E+00  1.08309E+03  6.667E-01  5.057E+00  3.034E-02  1.222E+00
   1    3    4     1     4    3.4216E+00  1.0164E-01   3.3199E+00  0.000E+00  0.000E+00  0.000E+00  1.07807E+03  6.595E-01  5.004E+00  2.777E-02  1.220E+00
   1    4    5     2     1    1.3199E+00  2.4920E-01   1.0707E+00  0.000E+00  0.000E+00  0.000E+00  1.07213E+03  1.948E-01  1.200E+01  7.800E-02  1.065E+00
   1    5    6     2     2    1.0707E+00  1.9035E-01   8.8040E-01  0.000E+00  0.000E+00  0.000E+00  1.06668E+03  1.725E-01  1.200E+01  6.000E-02  1.057E+00
   1    6    6     2     3    8.8040E-01  1.8909E-01   6.9131E-01  0.000E+00  0.000E+00  0.000E+00  1.06194E+03  1.515E-01  1.200E+01  6.000E-02  1.050E+00
   1    7    6     2     4    6.9131E-01  1.8771E-01   5.0360E-01  0.000E+00  0.000E+00  0.000E+00  1.05720E+03  1.285E-01  1.200E+01  6.000E-02  1.043E+00
   1    8    6     2     5    5.0360E-01  1.8616E-01   3.1744E-01  0.000E+00  0.000E+00  0.000E+00  1.05246E+03  1.026E-01  1.200E+01  6.000E-02  1.034E+00
   1    3    5     3     1    2.0000E+00  2.8252E-01   1.7175E+00  0.000E+00  0.000E+00  0.000E+00  1.07555E+03  1.909E+00  9.636E+00  7.227E-02  1.955E+00
   1    3    6     3     2    1.7175E+00  2.4905E-01   1.4684E+00  0.000E+00  0.000E+00  0.000E+00  1.07264E+03  1.727E+00  8.909E+00  6.682E-02  1.864E+00
   1    3    7     3     3    1.4684E+00  1.9718E-01   1.2712E+00  0.000E+00  0.000E+00  0.000E+00  1.06987E+03  1.555E+00  8.218E+00  5.547E-02  1.777E+00
   1    4    8     3     4    1.2712E+00  2.2567E-01   1.0456E+00  0.000E+00  0.000E+00  0.000E+00  1.06682E+03  1.364E+00  7.455E+00  6.709E-02  1.682E+00
   1    5    8     3     5    1.0456E+00  1.5790E-01   8.8768E-01  0.000E+00  0.000E+00  0.000E+00  1.06362E+03  1.164E+00  6.655E+00  4.991E-02  1.582E+00
   1    6    8     3     6    8.8768E-01  5.5980E-02   8.3170E-01  0.000E+00  0.000E+00  0.000E+00  1.06158E+03  1.036E+00  6.145E+00  1.844E-02  1.518E+00
   1    5   10     4     1    1.0000E+01  9.0919E-02   9.9091E+00  0.000E+00  0.000E+00  0.000E+00  1.07836E+03  6.368E-01  1.000E+01  2.500E-02  1.212E+00
   1    5    9     4     2    9.9091E+00  1.8158E-01   9.7275E+00  0.000E+00  0.000E+00  0.000E+00  1.07154E+03  6.315E-01  1.000E+01  5.000E-02  1.211E+00
   1    6    8     4     3    9.7275E+00  1.2689E-01   9.6006E+00  0.000E+00  0.000E+00  0.000E+00  1.06381E+03  6.256E-01  1.000E+01  3.500E-02  1.209E+00
   1    6    8     5     1    1.0432E+01  2.2686E-01   1.0205E+01  0.000E+00  0.000E+00  0.000E+00  1.05868E+03  6.790E-01  1.542E+01  6.166E-02  1.226E+00
   1    7    7     5     2    1.0205E+01  2.7894E-01   9.9265E+00  0.000E+00  0.000E+00  0.000E+00  1.05417E+03  6.732E-01  1.519E+01  7.594E-02  1.224E+00
   1    8    7     5     3    9.9265E+00  1.9221E-01   9.7343E+00  0.000E+00  0.000E+00  0.000E+00  1.04992E+03  6.676E-01  1.497E+01  5.241E-02  1.223E+00
   1    8    6     5     4    9.7343E+00  1.3577E-01   9.5985E+00  0.000E+00  0.000E+00  0.000E+00  1.04691E+03  6.637E-01  1.482E+01  3.706E-02  1.221E+00
   1    9    6     6     1    9.9160E+00  2.2178E-01   9.6942E+00  0.000E+00  0.000E+00  0.000E+00  1.04342E+03  6.964E-01  1.200E+01  6.000E-02  1.232E+00
   1   10    7     6     2    9.6942E+00  2.2121E-01   9.4730E+00  0.000E+00  0.000E+00  0.000E+00  1.03887E+03  6.869E-01  1.200E+01  6.000E-02  1.229E+00
   1   11    7     6     3    9.4730E+00  2.2064E-01   9.2523E+00  0.000E+00  0.000E+00  0.000E+00  1.03431E+03  6.773E-01  1.200E+01  6.000E-02  1.226E+00
   1   12    7     6     4    9.2523E+00  2.2006E-01   9.0323E+00  0.000E+00  0.000E+00  0.000E+00  1.02976E+03  6.677E-01  1.200E+01  6.000E-02  1.223E+00
   1   13    7     6     5    9.0323E+00 -1.1354E-01   9.1458E+00  0.000E+00  0.000E+00  0.000E+00  1.02657E+03  6.654E-01  1.200E+01  2.400E-01 -1.577E-01
   1   14    9     7     1    1.5000E+02  1.3338E+00   1.4867E+02  0.000E+00  0.000E+00  0.000E+00  1.03987E+03  2.288E+00  5.529E+01  5.593E-01  7.949E-01
   1   13    8     7     2    1.4867E+02  1.8355E+00   1.4683E+02  0.000E+00  0.000E+00  0.000E+00  1.03478E+03  2.279E+00  5.526E+01  6.148E-01  9.952E-01
   1   13    7     7     3    1.4683E+02  1.4756E+00   1.4536E+02  0.000E+00  0.000E+00  0.000E+00  1.02969E+03  2.270E+00  5.522E+01  5.585E-01  8.807E-01
   1   13    6     8     1    1.5450E+02  8.2944E-01   1.5367E+02  0.000E+00  0.000E+00  0.000E+00  1.02472E+03  2.845E+00  4.126E+01  4.204E-01  6.576E-01
   1   13    5     8     2    1.5367E+02  1.0127E-01   1.5357E+02  0.000E+00  0.000E+00  0.000E+00  1.01847E+03  2.842E+00  4.121E+01  4.200E-01  8.038E-02
   1   13    4     8     3    1.5357E+02 -2.6792E+00   1.5625E+02  0.000E+00  0.000E+00  0.000E+00  1.01223E+03  2.851E+00  4.134E+01  4.213E+00 -2.120E-01
   1   13    3     8     4    1.5625E+02 -3.7567E+00   1.6001E+02  0.000E+00  0.000E+00  0.000E+00  1.00600E+03  2.873E+00  4.166E+01  4.245E+00 -2.950E-01
   1   13    2     8     5    1.6001E+02 -2.6055E+00   1.6261E+02  0.000E+00  0.000E+00  0.000E+00  9.99770E+02  2.895E+00  4.197E+01  4.277E+00 -2.031E-01
   1   13    1     8     6    1.6261E+02 -1.9843E+00   1.6460E+02  0.000E+00  0.000E+00  0.000E+00  9.94785E+02  2.910E+00  4.220E+01  2.580E+00 -2.564E-01
   1    8    6     9     1    0.0000E+00  0.0000E+00   0.0000E+00  0.000E+00  0.000E+00  0.000E+00  1.07875E+03  0.000E+00  4.000E+00  0.000E+00  1.000E+00
   1    8    5     9     2    0.0000E+00  0.0000E+00   0.0000E+00  0.000E+00  0.000E+00  0.000E+00  1.07825E+03  0.000E+00  4.000E+00  0.000E+00  1.000E+00



 UBDSV3 SAVING "           GW ET" ON UNIT  61 AT TIME STEP  1, STRESS PERIOD   1
 UBDSV3 SAVING "    UZF RECHARGE" ON UNIT  61 AT TIME STEP  1, STRESS PERIOD   1
 UBDSV3 SAVING " SURFACE LEAKAGE" ON UNIT  61 AT TIME STEP  1, STRESS PERIOD   1
 UBDSV3 SAVING "       HORT+DUNN" ON UNIT  61 AT TIME STEP  1, STRESS PERIOD   1
 UBDSV3 SAVING "  STORAGE CHANGE" ON UNIT  61 AT TIME STEP  1, STRESS PERIOD   1


UNSATURATED ZONE PACKAGE VOLUMETRIC BUDGET FOR  TIME STEP     1 STRESS PERIOD    1
  ------------------------------------------------------------------------------



     CUMULATIVE VOLUMES      L**3       RATES FOR THIS TIME STEP      L**3/T
     ------------------                 ------------------------

           IN:                                      IN:
           ---                                      ---
        INFILTRATION =       73224.0000          INFILTRATION =           0.8475

          OUT:                                     OUT:
          ----                                     ----
              UZF ET =       0.0000E+00                UZF ET =       0.0000E+00
        UZF RECHARGE =       73224.0000          UZF RECHARGE =           0.8475

            IN - OUT =       0.0000E+00              IN - OUT =       0.0000E+00

          STORAGE:                                 STORAGE:
          --------                                 --------
      STORAGE CHANGE =       0.0000E+00        STORAGE CHANGE =       0.0000E+00

 PERCENT DISCREPANCY IS DIFFERENCE BETWEEN IN-OUT MINUS CHANGE IN STORAGE
 DIVIDED BY THE AVERAGE OF IN AND OUT TIMES 100

 PERCENT DISCREPANCY =           0.00     PERCENT DISCREPANCY =           0.00






 

            AG WELLS      PERIOD    1   STEP   1
 AG WELL      1   LAYER   1   ROW     6   COL     4   RATE     0.00000    
 AG WELL      2   LAYER   1   ROW     6   COL     5   RATE     0.00000    
 AG WELL      3   LAYER   1   ROW     7   COL     4   RATE     0.00000    
 AG WELL      4   LAYER   1   ROW     7   COL     5   RATE     0.00000    
 AG WELL      5   LAYER   1   ROW     8   COL     4   RATE     0.00000    
 AG WELL      6   LAYER   1   ROW     8   COL     5   RATE     0.00000    
 
 

   DIVERSION SEGMENTS     PERIOD    1   STEP   1
 
 

        SW IRRIGATION     PERIOD    1   STEP   1
 
 

        GW IRRIGATION     PERIOD    1   STEP   1
 
1
  VOLUMETRIC BUDGET FOR ENTIRE MODEL AT END OF TIME STEP    1, STRESS PERIOD   1
  ------------------------------------------------------------------------------

     CUMULATIVE VOLUMES      L**3       RATES FOR THIS TIME STEP      L**3/T
     ------------------                 ------------------------

           IN:                                      IN:
           ---                                      ---
               AG WELLS  =           0.0000                 AG WELLS  =           0.0000
        DIVERSION SEGMEN =           0.0000          DIVERSION SEGMEN =           0.0000
    TS         GW IRRIGA =           0.0000      TS         GW IRRIGA =           0.0000
    TION         SW IRRI =           0.0000      TION         SW IRRI =           0.0000
    GATION      SYSTEM L =           0.0000      GATION      SYSTEM L =           0.0000
    OSSES GW      SYSTEM =           0.0000      OSSES GW      SYSTEM =           0.0000

                TOTAL IN =           0.0000                  TOTAL IN =           0.0000

          OUT:                                     OUT:
          ----                                     ----
               AG WELLS  =           0.0000                 AG WELLS  =           0.0000
        DIVERSION SEGMEN =           0.0000          DIVERSION SEGMEN =           0.0000
    TS         GW IRRIGA =           0.0000      TS         GW IRRIGA =           0.0000
    TION         SW IRRI =           0.0000      TION         SW IRRI =           0.0000
    GATION      SYSTEM L =           0.0000      GATION      SYSTEM L =           0.0000
    OSSES GW      SYSTEM =           0.0000      OSSES GW      SYSTEM =           0.0000

               TOTAL OUT =           0.0000                 TOTAL OUT =           0.0000

                IN - OUT =           0.0000                  IN - OUT =           0.0000

     PERCENT DISCREPANCY =           0.00         PERCENT DISCREPANCY =           0.00



1
              HEAD IN LAYER   1 AT END OF TIME STEP   1 IN STRESS PERIOD    1
  ---------------------------------------------------------------------------

           1       2       3       4       5       6       7       8       9      10
 ...................................................................................
   1  1032.36 1031.32 6999.00 6999.00 6999.00 6999.00 6999.00 6999.00 6999.00 6999.00
   2  1031.40 1030.17 1029.58 6999.00 6999.00 1030.68 1030.83 1030.79 6999.00 6999.00
   3  6999.00 1029.27 1028.96 1028.73 1029.28 1029.91 1030.40 1030.37 6999.00 6999.00
   4  1028.57 1028.53 1028.35 1028.17 1028.24 1028.30 1028.78 1029.83 1029.56 6999.00
   5  1028.13 1027.76 1027.59 1027.51 1027.61 1027.82 1027.99 1028.47 1029.10 1029.63
   6  1027.57 1027.02 1026.83 1026.81 1026.93 1027.26 1027.55 1028.08 1028.52 1029.45
   7  1027.07 1026.08 1025.92 1025.96 1026.14 1026.55 1026.98 1027.45 1027.96 6999.00
   8  6999.00 1024.71 1024.75 1024.91 1025.15 1025.65 1026.08 1026.80 1027.36 6999.00
   9  6999.00 1022.70 1023.03 1023.48 1023.88 1024.53 1025.05 1025.79 1026.91 6999.00
  10  6999.00 1019.87 1020.64 1021.69 1022.47 1023.49 1024.39 1025.46 1027.07 1027.71
  11  6999.00 1015.35 1016.78 1019.32 1020.96 1022.69 1024.22 1026.00 1028.19 6999.00
  12  1001.91 1007.94 1012.08 1016.04 1019.32 1022.30 1024.79 1028.19 1031.18 6999.00
  13   995.55 1000.38 1006.88 1012.86 1018.23 1022.75 1027.05 1031.79 1034.63 6999.00
  14  6999.00 1005.79 1008.88 1013.53 1018.29 1022.70 1027.60 1033.07 1037.48 6999.00
  15  6999.00 6999.00 1012.52 1015.24 1018.71 1021.73 6999.00 6999.00 6999.00 6999.00

 HEAD WILL BE SAVED ON UNIT   62 AT END OF TIME STEP    1, STRESS PERIOD    1
1
  VOLUMETRIC BUDGET FOR ENTIRE MODEL AT END OF TIME STEP    1, STRESS PERIOD   1
  ------------------------------------------------------------------------------

     CUMULATIVE VOLUMES      L**3       RATES FOR THIS TIME STEP      L**3/T
     ------------------                 ------------------------

           IN:                                      IN:
           ---                                      ---
             STORAGE     =           0.0000               STORAGE     =           0.0000
       CONSTANT HEAD     =           0.0000         CONSTANT HEAD     =           0.0000
     HEAD DEP BOUNDS     =       24677.5273       HEAD DEP BOUNDS     =           0.2856
      STREAM LEAKAGE     =      889333.8125        STREAM LEAKAGE     =          10.2932
        UZF RECHARGE     =       73223.9531          UZF RECHARGE     =           0.8475
               GW ET     =           0.0000                 GW ET     =           0.0000
     SURFACE LEAKAGE     =           0.0000       SURFACE LEAKAGE     =           0.0000
           AG WELLS      =           0.0000             AG WELLS      =           0.0000

                TOTAL IN =      987235.2500                  TOTAL IN =          11.4263

          OUT:                                     OUT:
          ----                                     ----
             STORAGE     =           0.0000               STORAGE     =           0.0000
       CONSTANT HEAD     =           0.0000         CONSTANT HEAD     =           0.0000
     HEAD DEP BOUNDS     =       24801.8652       HEAD DEP BOUNDS     =           0.2871
      STREAM LEAKAGE     =      962433.3125        STREAM LEAKAGE     =          11.1393
        UZF RECHARGE     =           0.0000          UZF RECHARGE     =           0.0000
               GW ET     =           0.0000                 GW ET     =           0.0000
     SURFACE LEAKAGE     =           0.0000       SURFACE LEAKAGE     =           0.0000
           AG WELLS      =           0.0000             AG WELLS      =           0.0000

               TOTAL OUT =      987235.1875                 TOTAL OUT =          11.4263

                IN - OUT =       6.2500E-02                  IN - OUT =       1.9073E-06

     PERCENT DISCREPANCY =           0.00         PERCENT DISCREPANCY =           0.00






         TIME SUMMARY AT END OF TIME STEP    1 IN STRESS PERIOD    1
                    SECONDS     MINUTES      HOURS       DAYS        YEARS
                    -----------------------------------------------------------
   TIME STEP LENGTH  86400.      1440.0      24.000      1.0000     2.73785E-03
 STRESS PERIOD TIME  86400.      1440.0      24.000      1.0000     2.73785E-03
         TOTAL TIME  86400.      1440.0      24.000      1.0000     2.73785E-03
1
1
                            STRESS PERIOD NO.    2, LENGTH =   2630000.    
                            -----------------------------------------------

                              NUMBER OF TIME STEPS =    30

                               MULTIPLIER FOR DELT =     1.000

                            INITIAL TIME STEP SIZE =   87666.66    

 REUSING NON-PARAMETER GHB CELLS FROM LAST STRESS PERIOD

      2 GHB CELLS

 REUSING STREAM SEGMENT DATA FROM LAST STRESS PERIOD



            AREAL INFILTRATION RATE
 READING ON UNIT   19 WITH FORMAT: (10F4.0)            

            1           2           3           4           5           6           7           8           9          10
 ........................................................................................................................
   1   1.2000E-09   0.000       0.000       0.000       0.000       0.000       0.000       0.000       0.000       0.000    
   2   2.1000E-09  2.0000E-09  8.0000E-10  8.5000E-09   0.000       0.000       0.000       0.000       0.000       0.000    
   3   5.0000E-10  1.1000E-09  8.8000E-09  5.5000E-09   0.000       0.000       0.000       0.000       0.000       0.000    
   4   8.5000E-09  1.1000E-09  1.1000E-09  1.1000E-09  2.0000E-09   0.000       0.000       0.000       0.000       0.000    
   5   8.5000E-09  1.1000E-09  1.1000E-09  1.1000E-09  1.1000E-09   0.000       0.000       0.000       0.000       0.000    
   6   8.5000E-09  5.2000E-09  2.1000E-09  1.1000E-09  1.5000E-09   0.000       0.000       0.000       0.000       0.000    
   7   8.5000E-09  5.2000E-09  2.1000E-09  1.2000E-09  2.0000E-09   0.000       0.000       0.000       0.000       0.000    
   8   5.0000E-10  5.2000E-09  2.1000E-09  1.2000E-09  5.0000E-09   0.000       0.000       0.000       0.000       0.000    
   9   5.0000E-10  5.2000E-09  2.1000E-09  1.2000E-09  5.0000E-09   0.000       0.000       0.000       0.000       0.000    
  10   5.0000E-10  5.2000E-09  2.1000E-09  1.2000E-09  5.8000E-09   0.000       0.000       0.000       0.000       0.000    
  11   1.0000E-10  1.1000E-09  1.1000E-09  1.2000E-09  5.0000E-09   0.000       0.000       0.000       0.000       0.000    
  12   1.1000E-09  1.1000E-09  1.1000E-09  1.1000E-09  2.0000E-09   0.000       0.000       0.000       0.000       0.000    
  13   1.1000E-09  2.2000E-09  2.2000E-09  2.1000E-09  1.0000E-09   0.000       0.000       0.000       0.000       0.000    
  14   2.0000E-10  5.5000E-09  5.5000E-09  5.2000E-09  1.0000E-09   0.000       0.000       0.000       0.000       0.000    
  15    0.000      8.8000E-09  8.8000E-09   0.000       0.000       0.000       0.000       0.000       0.000       0.000    

                  ET RATE =  5.000000E-10

 USING ET EXTINCTION DEPTH FROM PREVIOUS STRESS PERIOD. CURRENT PERIOD IS:       2

 USING EXTINCTION WATER CONTENT FROM PREVIOUS STRESS PERIOD. CURRENT PERIOD IS:       2

 USING AIR ENTRY PRESSURE FROM PREVIOUS STRESS PERIOD. CURRENT PERIOD IS:       2

 USING ROOT PRESSURE HEAD FROM PREVIOUS STRESS PERIOD. CURRENT PERIOD IS:       2

 USING ROOT ACTIVITY FROM PREVIOUS STRESS PERIOD. CURRENT PERIOD IS:       2

 PROCESSING AG STRESS PERIOD DATA

 READING AG STRESS PERIOD DATA

 READING IRRIGATION SEGMENT

 READING IRRIGATION WELL

 READING SUPPLEMENTAL WELL

 END PROCESSING AG STRESS PERIOD DATA OPTIONS
 
 SOLVING FOR HEAD 
                                                   Max.-Head-Change                         Max.-Flux-Residual
  Residual-Control   Outer-Iter.   Inner-Iter.     Column Row Layer    Maximum-Head-Change  Column Row Layer    Maximum-Flux-Residual          L2-NORM 
          0                 1           2             4   13     1       0.4516090521E-02       4   13    1         0.2587981320E+00      0.5589996200E+00
          0                 2           2             4   13     1      -0.4346343863E-03       4   13    1        -0.2560894401E-01      0.5485536502E-01
          0                 3           1             4   13     1       0.2895109903E-04       4   13    1         0.1753708056E-02      0.3737779858E-02

    ------------------------------------------------
       NWT REQUIRED            3 OUTER ITERATIONS 
       AND A TOTAL OF          5 INNER ITERATIONS.
    ------------------------------------------------

 OUTPUT CONTROL FOR STRESS PERIOD    2   TIME STEP    1
    PRINT BUDGET
    PRINT HEAD FOR ALL LAYERS
    SAVE BUDGET
 UBDSV1 SAVING "         STORAGE" ON UNIT 102 AT TIME STEP  1, STRESS PERIOD   2
 UBDSV2 SAVING "   CONSTANT HEAD" ON UNIT 102 AT TIME STEP  1, STRESS PERIOD   2
 UBDSV1 SAVING "FLOW RIGHT FACE " ON UNIT 102 AT TIME STEP  1, STRESS PERIOD   2
 UBDSV1 SAVING "FLOW FRONT FACE " ON UNIT 102 AT TIME STEP  1, STRESS PERIOD   2

  HEAD DEP BOUNDS   PERIOD    2   STEP     1
 BOUNDARY      1   LAYER   1   ROW    13   COL     1   RATE   -0.287146    
 BOUNDARY      2   LAYER   1   ROW    14   COL     9   RATE    0.285621    



 STREAM LISTING     PERIOD      2   STEP        1

 LAYER ROW COL. STREAM  RCH.  FLOW INTO     FLOW TO   FLOW OUT OF   OVRLND.     DIRECT     STREAM       STREAM     STREAM     STREAM   STREAMBED  STREAMBED
                SEG.NO.  NO.  STRM. RCH.    AQUIFER    STRM. RCH.    RUNOFF     PRECIP       ET          HEAD       DEPTH      WIDTH   CONDCTNC.   GRADIENT

   1    1    1     1     1    1.6500E+01  1.9759E-01   1.6302E+01  0.000E+00  0.000E+00  0.000E+00  1.09409E+03  1.039E+00  1.087E+01  4.893E-02  1.346E+00
   1    2    2     1     2    1.6302E+01  3.0466E-01   1.5998E+01  0.000E+00  0.000E+00  0.000E+00  1.08909E+03  1.034E+00  1.079E+01  7.552E-02  1.345E+00
   1    3    3     1     3    1.5998E+01  2.5853E-01   1.5739E+01  0.000E+00  0.000E+00  0.000E+00  1.08345E+03  1.029E+00  1.070E+01  6.417E-02  1.343E+00
   1    3    4     1     4    1.5739E+01  2.3700E-01   1.5502E+01  0.000E+00  0.000E+00  0.000E+00  1.07843E+03  1.024E+00  1.061E+01  5.889E-02  1.341E+00
   1    4    5     2     1    1.3502E+01  2.9865E-01   1.3204E+01  0.000E+00  0.000E+00  0.000E+00  1.07276E+03  8.289E-01  1.200E+01  7.800E-02  1.276E+00
   1    5    6     2     2    1.3204E+01  2.2914E-01   1.2974E+01  0.000E+00  0.000E+00  0.000E+00  1.06733E+03  8.190E-01  1.200E+01  6.000E-02  1.273E+00
   1    6    6     2     3    1.2974E+01  2.2862E-01   1.2746E+01  0.000E+00  0.000E+00  0.000E+00  1.06260E+03  8.104E-01  1.200E+01  6.000E-02  1.270E+00
   1    7    6     2     4    1.2746E+01  2.2810E-01   1.2518E+01  0.000E+00  0.000E+00  0.000E+00  1.05788E+03  8.017E-01  1.200E+01  6.000E-02  1.267E+00
   1    8    6     2     5    1.2518E+01  2.2758E-01   1.2290E+01  0.000E+00  0.000E+00  0.000E+00  1.05315E+03  7.930E-01  1.200E+01  6.000E-02  1.264E+00
   1    3    5     3     1    2.0000E+00  2.8252E-01   1.7175E+00  0.000E+00  0.000E+00  0.000E+00  1.07555E+03  1.909E+00  9.636E+00  7.227E-02  1.955E+00
   1    3    6     3     2    1.7175E+00  2.4905E-01   1.4684E+00  0.000E+00  0.000E+00  0.000E+00  1.07264E+03  1.727E+00  8.909E+00  6.682E-02  1.864E+00
   1    3    7     3     3    1.4684E+00  1.9718E-01   1.2712E+00  0.000E+00  0.000E+00  0.000E+00  1.06987E+03  1.555E+00  8.218E+00  5.547E-02  1.777E+00
   1    4    8     3     4    1.2712E+00  2.2567E-01   1.0456E+00  0.000E+00  0.000E+00  0.000E+00  1.06682E+03  1.364E+00  7.455E+00  6.709E-02  1.682E+00
   1    5    8     3     5    1.0456E+00  1.5790E-01   8.8768E-01  0.000E+00  0.000E+00  0.000E+00  1.06362E+03  1.164E+00  6.655E+00  4.991E-02  1.582E+00
   1    6    8     3     6    8.8768E-01  5.5980E-02   8.3170E-01  0.000E+00  0.000E+00  0.000E+00  1.06158E+03  1.036E+00  6.145E+00  1.844E-02  1.518E+00
   1    5   10     4     1    1.0000E+01  9.0919E-02   9.9091E+00  0.000E+00  0.000E+00  0.000E+00  1.07836E+03  6.368E-01  1.000E+01  2.500E-02  1.212E+00
   1    5    9     4     2    9.9091E+00  1.8158E-01   9.7275E+00  0.000E+00  0.000E+00  0.000E+00  1.07154E+03  6.315E-01  1.000E+01  5.000E-02  1.211E+00
   1    6    8     4     3    9.7275E+00  1.2689E-01   9.6006E+00  0.000E+00  0.000E+00  0.000E+00  1.06381E+03  6.256E-01  1.000E+01  3.500E-02  1.209E+00
   1    6    8     5     1    1.0432E+01  2.2686E-01   1.0205E+01  0.000E+00  0.000E+00  0.000E+00  1.05868E+03  6.790E-01  1.542E+01  6.166E-02  1.226E+00
   1    7    7     5     2    1.0205E+01  2.7894E-01   9.9265E+00  0.000E+00  0.000E+00  0.000E+00  1.05417E+03  6.732E-01  1.519E+01  7.594E-02  1.224E+00
   1    8    7     5     3    9.9265E+00  1.9221E-01   9.7343E+00  0.000E+00  0.000E+00  0.000E+00  1.04992E+03  6.676E-01  1.497E+01  5.241E-02  1.223E+00
   1    8    6     5     4    9.7343E+00  1.3577E-01   9.5985E+00  0.000E+00  0.000E+00  0.000E+00  1.04691E+03  6.637E-01  1.482E+01  3.706E-02  1.221E+00
   1    9    6     6     1    2.1889E+01  2.4742E-01   2.1641E+01  0.000E+00  0.000E+00  0.000E+00  1.04385E+03  1.124E+00  1.200E+01  6.000E-02  1.375E+00
   1   10    7     6     2    2.1641E+01  2.4696E-01   2.1394E+01  0.000E+00  0.000E+00  0.000E+00  1.03930E+03  1.116E+00  1.200E+01  6.000E-02  1.372E+00
   1   11    7     6     3    2.1394E+01  2.4650E-01   2.1148E+01  0.000E+00  0.000E+00  0.000E+00  1.03474E+03  1.108E+00  1.200E+01  6.000E-02  1.369E+00
   1   12    7     6     4    2.1148E+01  2.4603E-01   2.0902E+01  0.000E+00  0.000E+00  0.000E+00  1.03019E+03  1.101E+00  1.200E+01  6.000E-02  1.367E+00
   1   13    7     6     5    2.0902E+01 -1.0396E-02   2.0912E+01  0.000E+00  0.000E+00  0.000E+00  1.02701E+03  1.097E+00  1.200E+01  2.400E-01 -1.444E-02
   1   14    9     7     1    1.5000E+02  1.3338E+00   1.4867E+02  0.000E+00  0.000E+00  0.000E+00  1.03987E+03  2.288E+00  5.529E+01  5.593E-01  7.949E-01
   1   13    8     7     2    1.4867E+02  1.8355E+00   1.4683E+02  0.000E+00  0.000E+00  0.000E+00  1.03478E+03  2.279E+00  5.526E+01  6.148E-01  9.952E-01
   1   13    7     7     3    1.4683E+02  1.4746E+00   1.4536E+02  0.000E+00  0.000E+00  0.000E+00  1.02969E+03  2.270E+00  5.522E+01  5.585E-01  8.802E-01
   1   13    6     8     1    1.6627E+02  8.8653E-01   1.6538E+02  0.000E+00  0.000E+00  0.000E+00  1.02480E+03  2.925E+00  4.241E+01  4.322E-01  6.838E-01
   1   13    5     8     2    1.6538E+02  1.3805E-01   1.6524E+02  0.000E+00  0.000E+00  0.000E+00  1.01855E+03  2.921E+00  4.236E+01  4.317E-01  1.066E-01
   1   13    4     8     3    1.6524E+02 -2.4329E+00   1.6768E+02  0.000E+00  0.000E+00  0.000E+00  1.01230E+03  2.929E+00  4.247E+01  4.328E+00 -1.874E-01
   1   13    3     8     4    1.6768E+02 -3.5424E+00   1.7122E+02  0.000E+00  0.000E+00  0.000E+00  1.00607E+03  2.949E+00  4.275E+01  4.357E+00 -2.710E-01
   1   13    2     8     5    1.7122E+02 -2.3687E+00   1.7359E+02  0.000E+00  0.000E+00  0.000E+00  9.99843E+02  2.968E+00  4.303E+01  4.385E+00 -1.800E-01
   1   13    1     8     6    1.7359E+02 -1.8506E+00   1.7544E+02  0.000E+00  0.000E+00  0.000E+00  9.94856E+02  2.981E+00  4.323E+01  2.643E+00 -2.334E-01
   1    8    6     9     1    0.0000E+00  0.0000E+00   0.0000E+00  0.000E+00  0.000E+00  0.000E+00  1.07875E+03  0.000E+00  4.000E+00  0.000E+00  1.000E+00
   1    8    5     9     2    0.0000E+00  0.0000E+00   0.0000E+00  0.000E+00  0.000E+00  0.000E+00  1.07825E+03  0.000E+00  4.000E+00  0.000E+00  1.000E+00



 UBDSV3 SAVING "           GW ET" ON UNIT  61 AT TIME STEP  1, STRESS PERIOD   2
 UBDSV3 SAVING "    UZF RECHARGE" ON UNIT  61 AT TIME STEP  1, STRESS PERIOD   2
 UBDSV3 SAVING " SURFACE LEAKAGE" ON UNIT  61 AT TIME STEP  1, STRESS PERIOD   2
 UBDSV3 SAVING "       HORT+DUNN" ON UNIT  61 AT TIME STEP  1, STRESS PERIOD   2
 UBDSV3 SAVING "  STORAGE CHANGE" ON UNIT  61 AT TIME STEP  1, STRESS PERIOD   2


UNSATURATED ZONE PACKAGE VOLUMETRIC BUDGET FOR  TIME STEP     1 STRESS PERIOD    2
  ------------------------------------------------------------------------------



     CUMULATIVE VOLUMES      L**3       RATES FOR THIS TIME STEP      L**3/T
     ------------------                 ------------------------

           IN:                                      IN:
           ---                                      ---
        INFILTRATION =      459614.8186          INFILTRATION =           4.4075

          OUT:                                     OUT:
          ----                                     ----
              UZF ET =       63558.2764                UZF ET =           0.7250
        UZF RECHARGE =       73224.0000          UZF RECHARGE =       0.0000E+00

            IN - OUT =      322832.5422              IN - OUT =           3.6825

          STORAGE:                                 STORAGE:
          --------                                 --------
      STORAGE CHANGE =      322832.5409        STORAGE CHANGE =           3.6825

 PERCENT DISCREPANCY IS DIFFERENCE BETWEEN IN-OUT MINUS CHANGE IN STORAGE
 DIVIDED BY THE AVERAGE OF IN AND OUT TIMES 100

 PERCENT DISCREPANCY =           0.00     PERCENT DISCREPANCY =           0.00






 

            AG WELLS      PERIOD    2   STEP   1
 AG WELL      1   LAYER   1   ROW     6   COL     4   RATE     0.00000    
 AG WELL      2   LAYER   1   ROW     6   COL     5   RATE     0.00000    
 AG WELL      3   LAYER   1   ROW     7   COL     4   RATE     0.00000    
 AG WELL      4   LAYER   1   ROW     7   COL     5   RATE     0.00000    
 AG WELL      5   LAYER   1   ROW     8   COL     4   RATE     0.00000    
 AG WELL      6   LAYER   1   ROW     8   COL     5   RATE     0.00000    
 
 

   DIVERSION SEGMENTS     PERIOD    2   STEP   1
 
 

        SW IRRIGATION     PERIOD    2   STEP   1
 
 

        GW IRRIGATION     PERIOD    2   STEP   1
 
1
  VOLUMETRIC BUDGET FOR ENTIRE MODEL AT END OF TIME STEP    1, STRESS PERIOD   2
  ------------------------------------------------------------------------------

     CUMULATIVE VOLUMES      L**3       RATES FOR THIS TIME STEP      L**3/T
     ------------------                 ------------------------

           IN:                                      IN:
           ---                                      ---
               AG WELLS  =           0.0000                 AG WELLS  =           0.0000
        DIVERSION SEGMEN =           0.0000          DIVERSION SEGMEN =           0.0000
    TS         GW IRRIGA =           0.0000      TS         GW IRRIGA =           0.0000
    TION         SW IRRI =           0.0000      TION         SW IRRI =           0.0000
    GATION      SYSTEM L =           0.0000      GATION      SYSTEM L =           0.0000
    OSSES GW      SYSTEM =           0.0000      OSSES GW      SYSTEM =           0.0000

                TOTAL IN =           0.0000                  TOTAL IN =           0.0000

          OUT:                                     OUT:
          ----                                     ----
               AG WELLS  =           0.0000                 AG WELLS  =           0.0000
        DIVERSION SEGMEN =           0.0000          DIVERSION SEGMEN =           0.0000
    TS         GW IRRIGA =           0.0000      TS         GW IRRIGA =           0.0000
    TION         SW IRRI =           0.0000      TION         SW IRRI =           0.0000
    GATION      SYSTEM L =           0.0000      GATION      SYSTEM L =           0.0000
    OSSES GW      SYSTEM =           0.0000      OSSES GW      SYSTEM =           0.0000

               TOTAL OUT =           0.0000                 TOTAL OUT =           0.0000

                IN - OUT =           0.0000                  IN - OUT =           0.0000

     PERCENT DISCREPANCY =           0.00         PERCENT DISCREPANCY =           0.00



1
              HEAD IN LAYER   1 AT END OF TIME STEP   1 IN STRESS PERIOD    2
  ---------------------------------------------------------------------------

           1       2       3       4       5       6       7       8       9      10
 ...................................................................................
   1  1032.36 1031.32 6999.00 6999.00 6999.00 6999.00 6999.00 6999.00 6999.00 6999.00
   2  1031.40 1030.17 1029.58 6999.00 6999.00 1030.68 1030.83 1030.79 6999.00 6999.00
   3  6999.00 1029.27 1028.96 1028.74 1029.28 1029.91 1030.40 1030.37 6999.00 6999.00
   4  1028.57 1028.53 1028.35 1028.17 1028.24 1028.30 1028.78 1029.83 1029.56 6999.00
   5  1028.13 1027.76 1027.59 1027.51 1027.61 1027.82 1027.99 1028.47 1029.10 1029.63
   6  1027.57 1027.02 1026.83 1026.81 1026.93 1027.26 1027.55 1028.08 1028.52 1029.45
   7  1027.07 1026.08 1025.92 1025.96 1026.14 1026.55 1026.98 1027.45 1027.96 6999.00
   8  6999.00 1024.71 1024.75 1024.91 1025.15 1025.65 1026.08 1026.80 1027.36 6999.00
   9  6999.00 1022.70 1023.03 1023.48 1023.88 1024.53 1025.05 1025.79 1026.91 6999.00
  10  6999.00 1019.87 1020.64 1021.69 1022.47 1023.49 1024.39 1025.46 1027.07 1027.71
  11  6999.00 1015.35 1016.78 1019.32 1020.96 1022.69 1024.22 1026.00 1028.19 6999.00
  12  1001.91 1007.94 1012.08 1016.04 1019.32 1022.30 1024.79 1028.19 1031.18 6999.00
  13   995.56 1000.38 1006.89 1012.87 1018.23 1022.75 1027.05 1031.79 1034.63 6999.00
  14  6999.00 1005.79 1008.88 1013.53 1018.29 1022.70 1027.60 1033.07 1037.48 6999.00
  15  6999.00 6999.00 1012.52 1015.24 1018.71 1021.73 6999.00 6999.00 6999.00 6999.00
1
  VOLUMETRIC BUDGET FOR ENTIRE MODEL AT END OF TIME STEP    1, STRESS PERIOD   2
  ------------------------------------------------------------------------------

     CUMULATIVE VOLUMES      L**3       RATES FOR THIS TIME STEP      L**3/T
     ------------------                 ------------------------

           IN:                                      IN:
           ---                                      ---
             STORAGE     =       66736.4922               STORAGE     =           0.7613
       CONSTANT HEAD     =           0.0000         CONSTANT HEAD     =           0.0000
     HEAD DEP BOUNDS     =       49716.9844       HEAD DEP BOUNDS     =           0.2856
      STREAM LEAKAGE     =     1877049.7500        STREAM LEAKAGE     =          11.2667
        UZF RECHARGE     =       73223.9531          UZF RECHARGE     =           0.0000
               GW ET     =           0.0000                 GW ET     =           0.0000
     SURFACE LEAKAGE     =           0.0000       SURFACE LEAKAGE     =           0.0000
           AG WELLS      =           0.0000             AG WELLS      =           0.0000

                TOTAL IN =     2066727.2500                  TOTAL IN =          12.3136

          OUT:                                     OUT:
          ----                                     ----
             STORAGE     =      159711.2812               STORAGE     =           1.8218
       CONSTANT HEAD     =           0.0000         CONSTANT HEAD     =           0.0000
     HEAD DEP BOUNDS     =       49975.0312       HEAD DEP BOUNDS     =           0.2871
      STREAM LEAKAGE     =     1857066.8750        STREAM LEAKAGE     =          10.2049
        UZF RECHARGE     =           0.0000          UZF RECHARGE     =           0.0000
               GW ET     =           0.0000                 GW ET     =           0.0000
     SURFACE LEAKAGE     =           0.0000       SURFACE LEAKAGE     =           0.0000
           AG WELLS      =           0.0000             AG WELLS      =           0.0000

               TOTAL OUT =     2066753.2500                 TOTAL OUT =          12.3139

                IN - OUT =         -26.0000                  IN - OUT =      -2.9755E-04

     PERCENT DISCREPANCY =          -0.00         PERCENT DISCREPANCY =          -0.00






         TIME SUMMARY AT END OF TIME STEP    1 IN STRESS PERIOD    2
                    SECONDS     MINUTES      HOURS       DAYS        YEARS
                    -----------------------------------------------------------
   TIME STEP LENGTH  87667.      1461.1      24.352      1.0147     2.77799E-03
 STRESS PERIOD TIME  87667.      1461.1      24.352      1.0147     2.77799E-03
         TOTAL TIME 1.74067E+05  2901.1      48.352      2.0147     5.51584E-03
1
 
 SOLVING FOR HEAD 
                                                   Max.-Head-Change                         Max.-Flux-Residual
  Residual-Control   Outer-Iter.   Inner-Iter.     Column Row Layer    Maximum-Head-Change  Column Row Layer    Maximum-Flux-Residual          L2-NORM 
          0                 1           2             2   13     1       0.4141604067E-02       4   13    1         0.2347421644E+00      0.5289478646E+00
          0                 2           2             4   13     1      -0.3943921141E-03       4   13    1        -0.2322508993E-01      0.5195277974E-01
          0                 3           1             4   13     1       0.2644842864E-04       4   13    1         0.1601340582E-02      0.3548358795E-02

    ------------------------------------------------
       NWT REQUIRED            3 OUTER ITERATIONS 
       AND A TOTAL OF          5 INNER ITERATIONS.
    ------------------------------------------------

 NO OUTPUT CONTROL FOR STRESS PERIOD    2   TIME STEP    2
 
 SOLVING FOR HEAD 
                                                   Max.-Head-Change                         Max.-Flux-Residual
  Residual-Control   Outer-Iter.   Inner-Iter.     Column Row Layer    Maximum-Head-Change  Column Row Layer    Maximum-Flux-Residual          L2-NORM 
          0                 1           2             2   13     1       0.3838451722E-02       2   13    1         0.2157898443E+00      0.5018947223E+00
          0                 2           2             4   13     1      -0.3580860464E-03       4   13    1        -0.2107510957E-01      0.4934276730E-01
          0                 3           1             4   13     1       0.2403484716E-04       4   13    1         0.1454379058E-02      0.3375977545E-02

    ------------------------------------------------
       NWT REQUIRED            3 OUTER ITERATIONS 
       AND A TOTAL OF          5 INNER ITERATIONS.
    ------------------------------------------------

 NO OUTPUT CONTROL FOR STRESS PERIOD    2   TIME STEP    3
 
 SOLVING FOR HEAD 
                                                   Max.-Head-Change                         Max.-Flux-Residual
  Residual-Control   Outer-Iter.   Inner-Iter.     Column Row Layer    Maximum-Head-Change  Column Row Layer    Maximum-Flux-Residual          L2-NORM 
          0                 1           2             2   13     1       0.3557559587E-02       2   13    1         0.1999768401E+00      0.4775469808E+00
          0                 2           2             2   13     1      -0.3313317856E-03       2   13    1        -0.1914529669E-01      0.4698879784E-01
          0                 3           1             4   13     1       0.2180721347E-04       4   13    1         0.1318793073E-02      0.3217700760E-02

    ------------------------------------------------
       NWT REQUIRED            3 OUTER ITERATIONS 
       AND A TOTAL OF          5 INNER ITERATIONS.
    ------------------------------------------------

 NO OUTPUT CONTROL FOR STRESS PERIOD    2   TIME STEP    4
 
 SOLVING FOR HEAD 
                                                   Max.-Head-Change                         Max.-Flux-Residual
  Residual-Control   Outer-Iter.   Inner-Iter.     Column Row Layer    Maximum-Head-Change  Column Row Layer    Maximum-Flux-Residual          L2-NORM 
          0                 1           2             2   13     1       0.3297604685E-02       2   13    1         0.1853435845E+00      0.4556415430E+00
          0                 2           2             2    2     1      -0.3075700726E-03       2   13    1        -0.1774964558E-01      0.4487548817E-01
          0                 3           1             2    2     1       0.2094437751E-04       4   13    1         0.1198174047E-02      0.3076929403E-02

    ------------------------------------------------
       NWT REQUIRED            3 OUTER ITERATIONS 
       AND A TOTAL OF          5 INNER ITERATIONS.
    ------------------------------------------------

 NO OUTPUT CONTROL FOR STRESS PERIOD    2   TIME STEP    5
 
 SOLVING FOR HEAD 
                                                   Max.-Head-Change                         Max.-Flux-Residual
  Residual-Control   Outer-Iter.   Inner-Iter.     Column Row Layer    Maximum-Head-Change  Column Row Layer    Maximum-Flux-Residual          L2-NORM 
          0                 1           2             2    2     1       0.3137740412E-02       2   13    1         0.1717992485E+00      0.4359362745E+00
          0                 2           2             2    2     1      -0.3052170142E-03       2   13    1        -0.1645865069E-01      0.4297630026E-01
          0                 3           1             2    2     1       0.2078414308E-04       2    2    1         0.1148336413E-02      0.2950597531E-02

    ------------------------------------------------
       NWT REQUIRED            3 OUTER ITERATIONS 
       AND A TOTAL OF          5 INNER ITERATIONS.
    ------------------------------------------------

 NO OUTPUT CONTROL FOR STRESS PERIOD    2   TIME STEP    6
 
 SOLVING FOR HEAD 
                                                   Max.-Head-Change                         Max.-Flux-Residual
  Residual-Control   Outer-Iter.   Inner-Iter.     Column Row Layer    Maximum-Head-Change  Column Row Layer    Maximum-Flux-Residual          L2-NORM 
          0                 1           2             2    2     1       0.3113901219E-02       2    2    1         0.1627934591E+00      0.4182063023E+00
          0                 2           2             2    2     1      -0.3028981017E-03       2    2    1        -0.1627937418E-01      0.4126813743E-01
          0                 3           1             2    2     1       0.2062623349E-04       2    2    1         0.1139556415E-02      0.2837809020E-02

    ------------------------------------------------
       NWT REQUIRED            3 OUTER ITERATIONS 
       AND A TOTAL OF          5 INNER ITERATIONS.
    ------------------------------------------------

 NO OUTPUT CONTROL FOR STRESS PERIOD    2   TIME STEP    7
 
 SOLVING FOR HEAD 
                                                   Max.-Head-Change                         Max.-Flux-Residual
  Residual-Control   Outer-Iter.   Inner-Iter.     Column Row Layer    Maximum-Head-Change  Column Row Layer    Maximum-Flux-Residual          L2-NORM 
          0                 1           2             2    2     1       0.3090495551E-02       2    2    1         0.1615619536E+00      0.4022459845E+00
          0                 2           2             2    2     1      -0.3006213598E-03       2    2    1        -0.1615622306E-01      0.3973071059E-01
          0                 3           1             2    2     1       0.2047119617E-04       2    2    1         0.1130935852E-02      0.2735708798E-02

    ------------------------------------------------
       NWT REQUIRED            3 OUTER ITERATIONS 
       AND A TOTAL OF          5 INNER ITERATIONS.
    ------------------------------------------------

 NO OUTPUT CONTROL FOR STRESS PERIOD    2   TIME STEP    8
 
 SOLVING FOR HEAD 
                                                   Max.-Head-Change                         Max.-Flux-Residual
  Residual-Control   Outer-Iter.   Inner-Iter.     Column Row Layer    Maximum-Head-Change  Column Row Layer    Maximum-Flux-Residual          L2-NORM 
          0                 1           2             2    2     1       0.3067343233E-02       2    2    1         0.1603438620E+00      0.3878711226E+00
          0                 2           2             2    2     1      -0.2983692623E-03       2    2    1        -0.1603441335E-01      0.3834542087E-01
          0                 3           1             2    2     1       0.2031783686E-04       2    2    1         0.1122409173E-02      0.2642671797E-02

    ------------------------------------------------
       NWT REQUIRED            3 OUTER ITERATIONS 
       AND A TOTAL OF          5 INNER ITERATIONS.
    ------------------------------------------------

 NO OUTPUT CONTROL FOR STRESS PERIOD    2   TIME STEP    9
 
 SOLVING FOR HEAD 
                                                   Max.-Head-Change                         Max.-Flux-Residual
  Residual-Control   Outer-Iter.   Inner-Iter.     Column Row Layer    Maximum-Head-Change  Column Row Layer    Maximum-Flux-Residual          L2-NORM 
          0                 1           2             2    2     1       0.3044526459E-02       2    2    1         0.1591434383E+00      0.3749194505E+00
          0                 2           2             2    2     1      -0.2961498038E-03       2    2    1        -0.1591437041E-01      0.3709815521E-01
          0                 3           1             2    2     1       0.2016669991E-04       2    2    1         0.1114006163E-02      0.2560264876E-02

    ------------------------------------------------
       NWT REQUIRED            3 OUTER ITERATIONS 
       AND A TOTAL OF          5 INNER ITERATIONS.
    ------------------------------------------------

 NO OUTPUT CONTROL FOR STRESS PERIOD    2   TIME STEP   10
 
 SOLVING FOR HEAD 
                                                   Max.-Head-Change                         Max.-Flux-Residual
  Residual-Control   Outer-Iter.   Inner-Iter.     Column Row Layer    Maximum-Head-Change  Column Row Layer    Maximum-Flux-Residual          L2-NORM 
          0                 1           2             2    2     1       0.3021953028E-02       2    2    1         0.1579558800E+00      0.3632348403E+00
          0                 2           2             2    2     1      -0.2939540159E-03       2    2    1        -0.1579561404E-01      0.3597264143E-01
          0                 3           1             2    2     1       0.2001717447E-04       2    2    1         0.1105693200E-02      0.2485321935E-02

    ------------------------------------------------
       NWT REQUIRED            3 OUTER ITERATIONS 
       AND A TOTAL OF          5 INNER ITERATIONS.
    ------------------------------------------------

 NO OUTPUT CONTROL FOR STRESS PERIOD    2   TIME STEP   11
 
 SOLVING FOR HEAD 
                                                   Max.-Head-Change                         Max.-Flux-Residual
  Residual-Control   Outer-Iter.   Inner-Iter.     Column Row Layer    Maximum-Head-Change  Column Row Layer    Maximum-Flux-Residual          L2-NORM 
          0                 1           2             2    2     1       0.2999790039E-02       2    2    1         0.1567898805E+00      0.3526755102E+00
          0                 2           2             2    2     1      -0.2917981541E-03       2    2    1        -0.1567901358E-01      0.3495648231E-01
          0                 3           1             2    2     1       0.1987036864E-04       2    2    1         0.1097531184E-02      0.2417810200E-02

    ------------------------------------------------
       NWT REQUIRED            3 OUTER ITERATIONS 
       AND A TOTAL OF          5 INNER ITERATIONS.
    ------------------------------------------------

 NO OUTPUT CONTROL FOR STRESS PERIOD    2   TIME STEP   12
 
 SOLVING FOR HEAD 
                                                   Max.-Head-Change                         Max.-Flux-Residual
  Residual-Control   Outer-Iter.   Inner-Iter.     Column Row Layer    Maximum-Head-Change  Column Row Layer    Maximum-Flux-Residual          L2-NORM 
          0                 1           2             2    2     1       0.2977861985E-02       2    2    1         0.1556363428E+00      0.3431290732E+00
          0                 2           2             2    2     1      -0.2896651447E-03       2    2    1        -0.1556365931E-01      0.3403420194E-01
          0                 3           1             2    2     1       0.1972511894E-04       2    2    1         0.1089456382E-02      0.2356634596E-02

    ------------------------------------------------
       NWT REQUIRED            3 OUTER ITERATIONS 
       AND A TOTAL OF          5 INNER ITERATIONS.
    ------------------------------------------------

 NO OUTPUT CONTROL FOR STRESS PERIOD    2   TIME STEP   13
 
 SOLVING FOR HEAD 
                                                   Max.-Head-Change                         Max.-Flux-Residual
  Residual-Control   Outer-Iter.   Inner-Iter.     Column Row Layer    Maximum-Head-Change  Column Row Layer    Maximum-Flux-Residual          L2-NORM 
          0                 1           2             2    2     1       0.2956249451E-02       2    2    1         0.1544993958E+00      0.3344812589E+00
          0                 2           2             2    2     1      -0.2875628271E-03       2    2    1        -0.1544996412E-01      0.3320172279E-01
          0                 3           1             2    2     1       0.1958195883E-04       2    2    1         0.1081497722E-02      0.2301493628E-02

    ------------------------------------------------
       NWT REQUIRED            3 OUTER ITERATIONS 
       AND A TOTAL OF          5 INNER ITERATIONS.
    ------------------------------------------------

 NO OUTPUT CONTROL FOR STRESS PERIOD    2   TIME STEP   14
 
 SOLVING FOR HEAD 
                                                   Max.-Head-Change                         Max.-Flux-Residual
  Residual-Control   Outer-Iter.   Inner-Iter.     Column Row Layer    Maximum-Head-Change  Column Row Layer    Maximum-Flux-Residual          L2-NORM 
          0                 1           2             2    2     1       0.2934946924E-02       2    2    1         0.1533788083E+00      0.3266290391E+00
          0                 2           2             2    2     1      -0.2854906645E-03       2    2    1        -0.1533790486E-01      0.3244578659E-01
          0                 3           1             2    2     1       0.1944085210E-04       2    2    1         0.1073653580E-02      0.2253271663E-02

    ------------------------------------------------
       NWT REQUIRED            3 OUTER ITERATIONS 
       AND A TOTAL OF          5 INNER ITERATIONS.
    ------------------------------------------------

 NO OUTPUT CONTROL FOR STRESS PERIOD    2   TIME STEP   15
 
 SOLVING FOR HEAD 
                                                   Max.-Head-Change                         Max.-Flux-Residual
  Residual-Control   Outer-Iter.   Inner-Iter.     Column Row Layer    Maximum-Head-Change  Column Row Layer    Maximum-Flux-Residual          L2-NORM 
          0                 1           2             2    2     1       0.2913949701E-02       2    2    1         0.1522742942E+00      0.3194883970E+00
          0                 2           2             2    2     1      -0.2834482001E-03       2    2    1        -0.1522745299E-01      0.3175458754E-01
          0                 3           1             2    2     1       0.1930176821E-04       2    2    1         0.1065921939E-02      0.2202108134E-02

    ------------------------------------------------
       NWT REQUIRED            3 OUTER ITERATIONS 
       AND A TOTAL OF          5 INNER ITERATIONS.
    ------------------------------------------------

 NO OUTPUT CONTROL FOR STRESS PERIOD    2   TIME STEP   16
 
 SOLVING FOR HEAD 
                                                   Max.-Head-Change                         Max.-Flux-Residual
  Residual-Control   Outer-Iter.   Inner-Iter.     Column Row Layer    Maximum-Head-Change  Column Row Layer    Maximum-Flux-Residual          L2-NORM 
          0                 1           2             2    2     1       0.2893252802E-02       2    2    1         0.1511856099E+00      0.3129773638E+00
          0                 2           2             2    2     1      -0.2814349494E-03       2    2    1        -0.1511858410E-01      0.3112425761E-01
          0                 3           1             2    2     1       0.1916467332E-04       2    2    1         0.1058301126E-02      0.2162372807E-02

    ------------------------------------------------
       NWT REQUIRED            3 OUTER ITERATIONS 
       AND A TOTAL OF          5 INNER ITERATIONS.
    ------------------------------------------------

 NO OUTPUT CONTROL FOR STRESS PERIOD    2   TIME STEP   17
 
 SOLVING FOR HEAD 
                                                   Max.-Head-Change                         Max.-Flux-Residual
  Residual-Control   Outer-Iter.   Inner-Iter.     Column Row Layer    Maximum-Head-Change  Column Row Layer    Maximum-Flux-Residual          L2-NORM 
          0                 1           2             2    2     1       0.2872764618E-02       2    2    1         0.1501079641E+00      0.3070291294E+00
          0                 2           2             2    2     1      -0.2794420010E-03       2    2    1        -0.1501081909E-01      0.3054880097E-01
          0                 3           1             2    2     1       0.1902896085E-04       2    2    1         0.1050757575E-02      0.2123802106E-02

    ------------------------------------------------
       NWT REQUIRED            3 OUTER ITERATIONS 
       AND A TOTAL OF          5 INNER ITERATIONS.
    ------------------------------------------------

 NO OUTPUT CONTROL FOR STRESS PERIOD    2   TIME STEP   18
 
 SOLVING FOR HEAD 
                                                   Max.-Head-Change                         Max.-Flux-Residual
  Residual-Control   Outer-Iter.   Inner-Iter.     Column Row Layer    Maximum-Head-Change  Column Row Layer    Maximum-Flux-Residual          L2-NORM 
          0                 1           2             2    2     1       0.2852655220E-02       2    2    1         0.1490502058E+00      0.3015797110E+00
          0                 2           2             2    2     1      -0.2774858982E-03       2    2    1        -0.1490504280E-01      0.3002118470E-01
          0                 3           1             2    2     1       0.1889575781E-04       2    2    1         0.1043353232E-02      0.2088771625E-02

    ------------------------------------------------
       NWT REQUIRED            3 OUTER ITERATIONS 
       AND A TOTAL OF          5 INNER ITERATIONS.
    ------------------------------------------------

 NO OUTPUT CONTROL FOR STRESS PERIOD    2   TIME STEP   19
 
 SOLVING FOR HEAD 
                                                   Max.-Head-Change                         Max.-Flux-Residual
  Residual-Control   Outer-Iter.   Inner-Iter.     Column Row Layer    Maximum-Head-Change  Column Row Layer    Maximum-Flux-Residual          L2-NORM 
          0                 1           2             2    2     1       0.2832744979E-02       2    2    1         0.1480030213E+00      0.2965743403E+00
          0                 2           2             2    2     1      -0.2755491682E-03       2    2    1        -0.1480032393E-01      0.2953617810E-01
          0                 3           1             2    2     1       0.1876387376E-04       2    2    1         0.1036022913E-02      0.2056254546E-02

    ------------------------------------------------
       NWT REQUIRED            3 OUTER ITERATIONS 
       AND A TOTAL OF          5 INNER ITERATIONS.
    ------------------------------------------------

 NO OUTPUT CONTROL FOR STRESS PERIOD    2   TIME STEP   20
 
 SOLVING FOR HEAD 
                                                   Max.-Head-Change                         Max.-Flux-Residual
  Residual-Control   Outer-Iter.   Inner-Iter.     Column Row Layer    Maximum-Head-Change  Column Row Layer    Maximum-Flux-Residual          L2-NORM 
          0                 1           2             2    2     1       0.2813117412E-02       2    2    1         0.1469706957E+00      0.2919606691E+00
          0                 2           2             2    2     1      -0.2736399349E-03       2    2    1        -0.1469709095E-01      0.2908721195E-01
          0                 3           1             2    2     1       0.1863386204E-04       2    2    1         0.1028796608E-02      0.2025392134E-02

    ------------------------------------------------
       NWT REQUIRED            3 OUTER ITERATIONS 
       AND A TOTAL OF          5 INNER ITERATIONS.
    ------------------------------------------------

 NO OUTPUT CONTROL FOR STRESS PERIOD    2   TIME STEP   21
 
 SOLVING FOR HEAD 
                                                   Max.-Head-Change                         Max.-Flux-Residual
  Residual-Control   Outer-Iter.   Inner-Iter.     Column Row Layer    Maximum-Head-Change  Column Row Layer    Maximum-Flux-Residual          L2-NORM 
          0                 1           2             2    2     1       0.2793767597E-02       2    2    1         0.1459530265E+00      0.2876717450E+00
          0                 2           2             2    2     1      -0.2717577197E-03       2    2    1        -0.1459532363E-01      0.2864800425E-01
          0                 3           1             2    2     1       0.1850569044E-04       2    2    1         0.1021672912E-02      0.1996967620E-02

    ------------------------------------------------
       NWT REQUIRED            3 OUTER ITERATIONS 
       AND A TOTAL OF          5 INNER ITERATIONS.
    ------------------------------------------------

 NO OUTPUT CONTROL FOR STRESS PERIOD    2   TIME STEP   22
 
 SOLVING FOR HEAD 
                                                   Max.-Head-Change                         Max.-Flux-Residual
  Residual-Control   Outer-Iter.   Inner-Iter.     Column Row Layer    Maximum-Head-Change  Column Row Layer    Maximum-Flux-Residual          L2-NORM 
          0                 1           2             2    2     1       0.2774691381E-02       2    2    1         0.1449497585E+00      0.2837507840E+00
          0                 2           2             2    2     1      -0.2699021179E-03       2    2    1        -0.1449499642E-01      0.2829013869E-01
          0                 3           1             2    2     1       0.1837933082E-04       2    2    1         0.1014650006E-02      0.1972719293E-02

    ------------------------------------------------
       NWT REQUIRED            3 OUTER ITERATIONS 
       AND A TOTAL OF          5 INNER ITERATIONS.
    ------------------------------------------------

 NO OUTPUT CONTROL FOR STRESS PERIOD    2   TIME STEP   23
 
 SOLVING FOR HEAD 
                                                   Max.-Head-Change                         Max.-Flux-Residual
  Residual-Control   Outer-Iter.   Inner-Iter.     Column Row Layer    Maximum-Head-Change  Column Row Layer    Maximum-Flux-Residual          L2-NORM 
          0                 1           2             2    2     1       0.2755889406E-02       2    2    1         0.1439609219E+00      0.2800863817E+00
          0                 2           2             2    2     1      -0.2680731924E-03       2    2    1        -0.1439611239E-01      0.2793275682E-01
          0                 3           1             2    2     1       0.1825478743E-04       2    2    1         0.1007728093E-02      0.1948629738E-02

    ------------------------------------------------
       NWT REQUIRED            3 OUTER ITERATIONS 
       AND A TOTAL OF          5 INNER ITERATIONS.
    ------------------------------------------------

 NO OUTPUT CONTROL FOR STRESS PERIOD    2   TIME STEP   24
 
 SOLVING FOR HEAD 
                                                   Max.-Head-Change                         Max.-Flux-Residual
  Residual-Control   Outer-Iter.   Inner-Iter.     Column Row Layer    Maximum-Head-Change  Column Row Layer    Maximum-Flux-Residual          L2-NORM 
          0                 1           2             2    2     1       0.2737260761E-02       2    2    1         0.1429812797E+00      0.2766706518E+00
          0                 2           2             2    2     1      -0.2662611273E-03       2    2    1        -0.1429814778E-01      0.2759995882E-01
          0                 3           1             2    2     1       0.1813139261E-04       2    2    1         0.1000870577E-02      0.1925853957E-02

    ------------------------------------------------
       NWT REQUIRED            3 OUTER ITERATIONS 
       AND A TOTAL OF          5 INNER ITERATIONS.
    ------------------------------------------------

 NO OUTPUT CONTROL FOR STRESS PERIOD    2   TIME STEP   25
 
 SOLVING FOR HEAD 
                                                   Max.-Head-Change                         Max.-Flux-Residual
  Residual-Control   Outer-Iter.   Inner-Iter.     Column Row Layer    Maximum-Head-Change  Column Row Layer    Maximum-Flux-Residual          L2-NORM 
          0                 1           2             2    2     1       0.2718980085E-02       2    2    1         0.1420199372E+00      0.2734814448E+00
          0                 2           2             2    2     1      -0.2644829109E-03       2    2    1        -0.1420201317E-01      0.2728806241E-01
          0                 3           1             2    2     1       0.1801030323E-04       2    2    1         0.9941411768E-03      0.1904250751E-02

    ------------------------------------------------
       NWT REQUIRED            3 OUTER ITERATIONS 
       AND A TOTAL OF          5 INNER ITERATIONS.
    ------------------------------------------------

 NO OUTPUT CONTROL FOR STRESS PERIOD    2   TIME STEP   26
 
 SOLVING FOR HEAD 
                                                   Max.-Head-Change                         Max.-Flux-Residual
  Residual-Control   Outer-Iter.   Inner-Iter.     Column Row Layer    Maximum-Head-Change  Column Row Layer    Maximum-Flux-Residual          L2-NORM 
          0                 1           2             2    2     1       0.2700869381E-02       2    2    1         0.1410675692E+00      0.2704895739E+00
          0                 2           2             2    2     1      -0.2627212273E-03       2    2    1        -0.1410677599E-01      0.2699573848E-01
          0                 3           1             2    2     1       0.1789033852E-04       2    2    1         0.9874745567E-03      0.1885295107E-02

    ------------------------------------------------
       NWT REQUIRED            3 OUTER ITERATIONS 
       AND A TOTAL OF          5 INNER ITERATIONS.
    ------------------------------------------------

 NO OUTPUT CONTROL FOR STRESS PERIOD    2   TIME STEP   27
 
 SOLVING FOR HEAD 
                                                   Max.-Head-Change                         Max.-Flux-Residual
  Residual-Control   Outer-Iter.   Inner-Iter.     Column Row Layer    Maximum-Head-Change  Column Row Layer    Maximum-Flux-Residual          L2-NORM 
          0                 1           2             2    2     1       0.2683012307E-02       2    2    1         0.1401285478E+00      0.2676806483E+00
          0                 2           2             2    2     1      -0.2609842159E-03       2    2    1        -0.1401287351E-01      0.2672002674E-01
          0                 3           1             2    2     1       0.1777205489E-04       2    2    1         0.9809013885E-03      0.1865495041E-02

    ------------------------------------------------
       NWT REQUIRED            3 OUTER ITERATIONS 
       AND A TOTAL OF          5 INNER ITERATIONS.
    ------------------------------------------------

 NO OUTPUT CONTROL FOR STRESS PERIOD    2   TIME STEP   28
 
 SOLVING FOR HEAD 
                                                   Max.-Head-Change                         Max.-Flux-Residual
  Residual-Control   Outer-Iter.   Inner-Iter.     Column Row Layer    Maximum-Head-Change  Column Row Layer    Maximum-Flux-Residual          L2-NORM 
          0                 1           2             2    2     1       0.2665404407E-02       2    2    1         0.1392026767E+00      0.2650364101E+00
          0                 2           2             2    2     1      -0.2592714421E-03       2    2    1        -0.1392028606E-01      0.2646096208E-01
          0                 3           1             2    2     1       0.1765542112E-04       2    2    1         0.9744202535E-03      0.1848266191E-02

    ------------------------------------------------
       NWT REQUIRED            3 OUTER ITERATIONS 
       AND A TOTAL OF          5 INNER ITERATIONS.
    ------------------------------------------------

 NO OUTPUT CONTROL FOR STRESS PERIOD    2   TIME STEP   29
 
 SOLVING FOR HEAD 
                                                   Max.-Head-Change                         Max.-Flux-Residual
  Residual-Control   Outer-Iter.   Inner-Iter.     Column Row Layer    Maximum-Head-Change  Column Row Layer    Maximum-Flux-Residual          L2-NORM 
          0                 1           2             2    2     1       0.2648042040E-02       2    2    1         0.1382897251E+00      0.2625375411E+00
          0                 2           2             2    2     1      -0.2575825525E-03       2    2    1        -0.1382899057E-01      0.2621546360E-01
          0                 3           1             2    2     1       0.1754041401E-04       2    2    1         0.9680295867E-03      0.1831743696E-02

    ------------------------------------------------
       NWT REQUIRED            3 OUTER ITERATIONS 
       AND A TOTAL OF          5 INNER ITERATIONS.
    ------------------------------------------------

 NO OUTPUT CONTROL FOR STRESS PERIOD    2   TIME STEP   30



 STREAM LISTING     PERIOD      2   STEP       30

 LAYER ROW COL. STREAM  RCH.  FLOW INTO     FLOW TO   FLOW OUT OF   OVRLND.     DIRECT     STREAM       STREAM     STREAM     STREAM   STREAMBED  STREAMBED
                SEG.NO.  NO.  STRM. RCH.    AQUIFER    STRM. RCH.    RUNOFF     PRECIP       ET          HEAD       DEPTH      WIDTH   CONDCTNC.   GRADIENT

   1    1    1     1     1    1.6500E+01  1.9759E-01   1.6302E+01  0.000E+00  0.000E+00  0.000E+00  1.09409E+03  1.039E+00  1.087E+01  4.893E-02  1.346E+00
   1    2    2     1     2    1.6302E+01  3.0466E-01   1.5998E+01  0.000E+00  0.000E+00  0.000E+00  1.08909E+03  1.034E+00  1.079E+01  7.552E-02  1.345E+00
   1    3    3     1     3    1.5998E+01  2.5853E-01   1.5739E+01  0.000E+00  0.000E+00  0.000E+00  1.08345E+03  1.029E+00  1.070E+01  6.417E-02  1.343E+00
   1    3    4     1     4    1.5739E+01  2.3700E-01   1.5502E+01  0.000E+00  0.000E+00  0.000E+00  1.07843E+03  1.024E+00  1.061E+01  5.889E-02  1.341E+00
   1    4    5     2     1    1.3502E+01  2.9865E-01   1.3204E+01  0.000E+00  0.000E+00  0.000E+00  1.07276E+03  8.289E-01  1.200E+01  7.800E-02  1.276E+00
   1    5    6     2     2    1.3204E+01  2.2914E-01   1.2974E+01  0.000E+00  0.000E+00  0.000E+00  1.06733E+03  8.190E-01  1.200E+01  6.000E-02  1.273E+00
   1    6    6     2     3    1.2974E+01  2.2862E-01   1.2746E+01  0.000E+00  0.000E+00  0.000E+00  1.06260E+03  8.104E-01  1.200E+01  6.000E-02  1.270E+00
   1    7    6     2     4    1.2746E+01  2.2810E-01   1.2518E+01  0.000E+00  0.000E+00  0.000E+00  1.05788E+03  8.017E-01  1.200E+01  6.000E-02  1.267E+00
   1    8    6     2     5    1.2518E+01  2.2758E-01   1.2290E+01  0.000E+00  0.000E+00  0.000E+00  1.05315E+03  7.930E-01  1.200E+01  6.000E-02  1.264E+00
   1    3    5     3     1    2.0000E+00  2.8252E-01   1.7175E+00  0.000E+00  0.000E+00  0.000E+00  1.07555E+03  1.909E+00  9.636E+00  7.227E-02  1.955E+00
   1    3    6     3     2    1.7175E+00  2.4905E-01   1.4684E+00  0.000E+00  0.000E+00  0.000E+00  1.07264E+03  1.727E+00  8.909E+00  6.682E-02  1.864E+00
   1    3    7     3     3    1.4684E+00  1.9718E-01   1.2712E+00  0.000E+00  0.000E+00  0.000E+00  1.06987E+03  1.555E+00  8.218E+00  5.547E-02  1.777E+00
   1    4    8     3     4    1.2712E+00  2.2567E-01   1.0456E+00  0.000E+00  0.000E+00  0.000E+00  1.06682E+03  1.364E+00  7.455E+00  6.709E-02  1.682E+00
   1    5    8     3     5    1.0456E+00  1.5790E-01   8.8768E-01  0.000E+00  0.000E+00  0.000E+00  1.06362E+03  1.164E+00  6.655E+00  4.991E-02  1.582E+00
   1    6    8     3     6    8.8768E-01  5.5980E-02   8.3170E-01  0.000E+00  0.000E+00  0.000E+00  1.06158E+03  1.036E+00  6.145E+00  1.844E-02  1.518E+00
   1    5   10     4     1    1.0000E+01  9.0919E-02   9.9091E+00  0.000E+00  0.000E+00  0.000E+00  1.07836E+03  6.368E-01  1.000E+01  2.500E-02  1.212E+00
   1    5    9     4     2    9.9091E+00  1.8158E-01   9.7275E+00  0.000E+00  0.000E+00  0.000E+00  1.07154E+03  6.315E-01  1.000E+01  5.000E-02  1.211E+00
   1    6    8     4     3    9.7275E+00  1.2689E-01   9.6006E+00  0.000E+00  0.000E+00  0.000E+00  1.06381E+03  6.256E-01  1.000E+01  3.500E-02  1.209E+00
   1    6    8     5     1    1.0432E+01  2.2686E-01   1.0205E+01  0.000E+00  0.000E+00  0.000E+00  1.05868E+03  6.790E-01  1.542E+01  6.166E-02  1.226E+00
   1    7    7     5     2    1.0205E+01  2.7894E-01   9.9265E+00  0.000E+00  0.000E+00  0.000E+00  1.05417E+03  6.732E-01  1.519E+01  7.594E-02  1.224E+00
   1    8    7     5     3    9.9265E+00  1.9221E-01   9.7343E+00  0.000E+00  0.000E+00  0.000E+00  1.04992E+03  6.676E-01  1.497E+01  5.241E-02  1.223E+00
   1    8    6     5     4    9.7343E+00  1.3577E-01   9.5985E+00  0.000E+00  0.000E+00  0.000E+00  1.04691E+03  6.637E-01  1.482E+01  3.706E-02  1.221E+00
   1    9    6     6     1    2.1889E+01  2.4742E-01   2.1641E+01  0.000E+00  0.000E+00  0.000E+00  1.04385E+03  1.124E+00  1.200E+01  6.000E-02  1.375E+00
   1   10    7     6     2    2.1641E+01  2.4696E-01   2.1394E+01  0.000E+00  0.000E+00  0.000E+00  1.03930E+03  1.116E+00  1.200E+01  6.000E-02  1.372E+00
   1   11    7     6     3    2.1394E+01  2.4650E-01   2.1148E+01  0.000E+00  0.000E+00  0.000E+00  1.03474E+03  1.108E+00  1.200E+01  6.000E-02  1.369E+00
   1   12    7     6     4    2.1148E+01  2.4603E-01   2.0902E+01  0.000E+00  0.000E+00  0.000E+00  1.03019E+03  1.101E+00  1.200E+01  6.000E-02  1.367E+00
   1   13    7     6     5    2.0902E+01 -1.7643E-02   2.0919E+01  0.000E+00  0.000E+00  0.000E+00  1.02701E+03  1.097E+00  1.200E+01  2.400E-01 -2.450E-02
   1   14    9     7     1    1.5000E+02  1.3345E+00   1.4867E+02  0.000E+00  0.000E+00  0.000E+00  1.03987E+03  2.288E+00  5.529E+01  5.593E-01  7.953E-01
   1   13    8     7     2    1.4867E+02  1.8340E+00   1.4683E+02  0.000E+00  0.000E+00  0.000E+00  1.03478E+03  2.279E+00  5.526E+01  6.148E-01  9.944E-01
   1   13    7     7     3    1.4683E+02  1.4577E+00   1.4537E+02  0.000E+00  0.000E+00  0.000E+00  1.02969E+03  2.271E+00  5.522E+01  5.585E-01  8.701E-01
   1   13    6     8     1    1.6629E+02  8.7801E-01   1.6542E+02  0.000E+00  0.000E+00  0.000E+00  1.02480E+03  2.925E+00  4.241E+01  4.322E-01  6.772E-01
   1   13    5     8     2    1.6542E+02  1.3043E-01   1.6528E+02  0.000E+00  0.000E+00  0.000E+00  1.01855E+03  2.922E+00  4.236E+01  4.317E-01  1.007E-01
   1   13    4     8     3    1.6528E+02 -2.6018E+00   1.6789E+02  0.000E+00  0.000E+00  0.000E+00  1.01230E+03  2.930E+00  4.248E+01  4.329E+00 -2.003E-01
   1   13    3     8     4    1.6789E+02 -3.7076E+00   1.7159E+02  0.000E+00  0.000E+00  0.000E+00  1.00608E+03  2.951E+00  4.278E+01  4.360E+00 -2.835E-01
   1   13    2     8     5    1.7159E+02 -2.5608E+00   1.7416E+02  0.000E+00  0.000E+00  0.000E+00  9.99846E+02  2.971E+00  4.308E+01  4.390E+00 -1.945E-01
   1   13    1     8     6    1.7416E+02 -1.9439E+00   1.7610E+02  0.000E+00  0.000E+00  0.000E+00  9.94860E+02  2.985E+00  4.329E+01  2.647E+00 -2.448E-01
   1    8    6     9     1    0.0000E+00  0.0000E+00   0.0000E+00  0.000E+00  0.000E+00  0.000E+00  1.07875E+03  0.000E+00  4.000E+00  0.000E+00  1.000E+00
   1    8    5     9     2    0.0000E+00  0.0000E+00   0.0000E+00  0.000E+00  0.000E+00  0.000E+00  1.07825E+03  0.000E+00  4.000E+00  0.000E+00  1.000E+00





UNSATURATED ZONE PACKAGE VOLUMETRIC BUDGET FOR  TIME STEP    30 STRESS PERIOD    2
  ------------------------------------------------------------------------------



     CUMULATIVE VOLUMES      L**3       RATES FOR THIS TIME STEP      L**3/T
     ------------------                 ------------------------

           IN:                                      IN:
           ---                                      ---
        INFILTRATION =    11664948.5581          INFILTRATION =           4.4075

          OUT:                                     OUT:
          ----                                     ----
              UZF ET =     1906749.7349                UZF ET =           0.7250
        UZF RECHARGE =       73224.0000          UZF RECHARGE =       0.0000E+00

            IN - OUT =     9684974.8232              IN - OUT =           3.6825

          STORAGE:                                 STORAGE:
          --------                                 --------
      STORAGE CHANGE =     9684974.7653        STORAGE CHANGE =           3.6825

 PERCENT DISCREPANCY IS DIFFERENCE BETWEEN IN-OUT MINUS CHANGE IN STORAGE
 DIVIDED BY THE AVERAGE OF IN AND OUT TIMES 100

 PERCENT DISCREPANCY =           0.00     PERCENT DISCREPANCY =           0.00






1
  VOLUMETRIC BUDGET FOR ENTIRE MODEL AT END OF TIME STEP   30, STRESS PERIOD   2
  ------------------------------------------------------------------------------

     CUMULATIVE VOLUMES      L**3       RATES FOR THIS TIME STEP      L**3/T
     ------------------                 ------------------------

           IN:                                      IN:
           ---                                      ---
               AG WELLS  =           0.0000                 AG WELLS  =           0.0000
        DIVERSION SEGMEN =           0.0000          DIVERSION SEGMEN =           0.0000
    TS         GW IRRIGA =           0.0000      TS         GW IRRIGA =           0.0000
    TION         SW IRRI =           0.0000      TION         SW IRRI =           0.0000
    GATION      SYSTEM L =           0.0000      GATION      SYSTEM L =           0.0000
    OSSES GW      SYSTEM =           0.0000      OSSES GW      SYSTEM =           0.0000

                TOTAL IN =           0.0000                  TOTAL IN =           0.0000

          OUT:                                     OUT:
          ----                                     ----
               AG WELLS  =           0.0000                 AG WELLS  =           0.0000
        DIVERSION SEGMEN =           0.0000          DIVERSION SEGMEN =           0.0000
    TS         GW IRRIGA =           0.0000      TS         GW IRRIGA =           0.0000
    TION         SW IRRI =           0.0000      TION         SW IRRI =           0.0000
    GATION      SYSTEM L =           0.0000      GATION      SYSTEM L =           0.0000
    OSSES GW      SYSTEM =           0.0000      OSSES GW      SYSTEM =           0.0000

               TOTAL OUT =           0.0000                 TOTAL OUT =           0.0000

                IN - OUT =           0.0000                  IN - OUT =           0.0000

     PERCENT DISCREPANCY =           0.00         PERCENT DISCREPANCY =           0.00



1
  VOLUMETRIC BUDGET FOR ENTIRE MODEL AT END OF TIME STEP   30, STRESS PERIOD   2
  ------------------------------------------------------------------------------

     CUMULATIVE VOLUMES      L**3       RATES FOR THIS TIME STEP      L**3/T
     ------------------                 ------------------------

           IN:                                      IN:
           ---                                      ---
             STORAGE     =     1717157.7500               STORAGE     =           0.5919
       CONSTANT HEAD     =           0.0000         CONSTANT HEAD     =           0.0000
     HEAD DEP BOUNDS     =      775921.8750       HEAD DEP BOUNDS     =           0.2857
      STREAM LEAKAGE     =    30472192.0000        STREAM LEAKAGE     =          11.2329
        UZF RECHARGE     =       73223.9531          UZF RECHARGE     =           0.0000
               GW ET     =           0.0000                 GW ET     =           0.0000
     SURFACE LEAKAGE     =           0.0000       SURFACE LEAKAGE     =           0.0000
           AG WELLS      =           0.0000             AG WELLS      =           0.0000

                TOTAL IN =    33038496.0000                  TOTAL IN =          12.1105

          OUT:                                     OUT:
          ----                                     ----
             STORAGE     =     3367968.7500               STORAGE     =           0.9902
       CONSTANT HEAD     =           0.0000         CONSTANT HEAD     =           0.0000
     HEAD DEP BOUNDS     =      782284.1250       HEAD DEP BOUNDS     =           0.2886
      STREAM LEAKAGE     =    28888704.0000        STREAM LEAKAGE     =          10.8318
        UZF RECHARGE     =           0.0000          UZF RECHARGE     =           0.0000
               GW ET     =           0.0000                 GW ET     =           0.0000
     SURFACE LEAKAGE     =           0.0000       SURFACE LEAKAGE     =           0.0000
           AG WELLS      =           0.0000             AG WELLS      =           0.0000

               TOTAL OUT =    33038956.0000                 TOTAL OUT =          12.1106

                IN - OUT =        -460.0000                  IN - OUT =      -1.1063E-04

     PERCENT DISCREPANCY =          -0.00         PERCENT DISCREPANCY =          -0.00






         TIME SUMMARY AT END OF TIME STEP   30 IN STRESS PERIOD    2
                    SECONDS     MINUTES      HOURS       DAYS        YEARS
                    -----------------------------------------------------------
   TIME STEP LENGTH  87667.      1461.1      24.352      1.0147     2.77799E-03
 STRESS PERIOD TIME 2.63000E+06  43833.      730.56      30.440     8.33397E-02
         TOTAL TIME 2.71640E+06  45273.      754.56      31.440     8.60775E-02
1
1
                            STRESS PERIOD NO.    3, LENGTH =   2630000.    
                            -----------------------------------------------

                              NUMBER OF TIME STEPS =    30

                               MULTIPLIER FOR DELT =     1.000

                            INITIAL TIME STEP SIZE =   87666.66    

 REUSING NON-PARAMETER GHB CELLS FROM LAST STRESS PERIOD

      2 GHB CELLS

 REUSING STREAM SEGMENT DATA FROM LAST STRESS PERIOD



            AREAL INFILTRATION RATE
 READING ON UNIT   19 WITH FORMAT: (10F4.0)            

            1           2           3           4           5           6           7           8           9          10
 ........................................................................................................................
   1   1.2000E-09   0.000       0.000       0.000       0.000       0.000       0.000       0.000       0.000       0.000    
   2   2.1000E-09  2.0000E-09  8.0000E-10  8.5000E-09   0.000       0.000       0.000       0.000       0.000       0.000    
   3   5.0000E-10  1.1000E-09  8.8000E-09  5.5000E-09   0.000       0.000       0.000       0.000       0.000       0.000    
   4   8.5000E-09  1.1000E-09  1.1000E-09  1.1000E-09  2.0000E-09   0.000       0.000       0.000       0.000       0.000    
   5   8.5000E-09  1.1000E-09  1.1000E-09  1.1000E-09  1.1000E-09   0.000       0.000       0.000       0.000       0.000    
   6   8.5000E-09  5.2000E-09  2.1000E-09  1.1000E-09  1.5000E-09   0.000       0.000       0.000       0.000       0.000    
   7   8.5000E-09  5.2000E-09  2.1000E-09  1.2000E-09  2.0000E-09   0.000       0.000       0.000       0.000       0.000    
   8   5.0000E-10  5.2000E-09  2.1000E-09  1.2000E-09  5.0000E-09   0.000       0.000       0.000       0.000       0.000    
   9   5.0000E-10  5.2000E-09  2.1000E-09  1.2000E-09  5.0000E-09   0.000       0.000       0.000       0.000       0.000    
  10   5.0000E-10  5.2000E-09  2.1000E-09  1.2000E-09  5.8000E-09   0.000       0.000       0.000       0.000       0.000    
  11   1.0000E-10  1.1000E-09  1.1000E-09  1.2000E-09  5.0000E-09   0.000       0.000       0.000       0.000       0.000    
  12   1.1000E-09  1.1000E-09  1.1000E-09  1.1000E-09  2.0000E-09   0.000       0.000       0.000       0.000       0.000    
  13   1.1000E-09  2.2000E-09  2.2000E-09  2.1000E-09  1.0000E-09   0.000       0.000       0.000       0.000       0.000    
  14   2.0000E-10  5.5000E-09  5.5000E-09  5.2000E-09  1.0000E-09   0.000       0.000       0.000       0.000       0.000    
  15    0.000      8.8000E-09  8.8000E-09   0.000       0.000       0.000       0.000       0.000       0.000       0.000    

                  ET RATE =  5.000000E-10

 USING ET EXTINCTION DEPTH FROM PREVIOUS STRESS PERIOD. CURRENT PERIOD IS:       3

 USING EXTINCTION WATER CONTENT FROM PREVIOUS STRESS PERIOD. CURRENT PERIOD IS:       3

 USING AIR ENTRY PRESSURE FROM PREVIOUS STRESS PERIOD. CURRENT PERIOD IS:       3

 USING ROOT PRESSURE HEAD FROM PREVIOUS STRESS PERIOD. CURRENT PERIOD IS:       3

 USING ROOT ACTIVITY FROM PREVIOUS STRESS PERIOD. CURRENT PERIOD IS:       3

 PROCESSING AG STRESS PERIOD DATA

 READING AG STRESS PERIOD DATA

 READING IRRIGATION SEGMENT

 READING IRRIGATION WELL

 READING SUPPLEMENTAL WELL

 END PROCESSING AG STRESS PERIOD DATA OPTIONS
 
 SOLVING FOR HEAD 
                                                   Max.-Head-Change                         Max.-Flux-Residual
  Residual-Control   Outer-Iter.   Inner-Iter.     Column Row Layer    Maximum-Head-Change  Column Row Layer    Maximum-Flux-Residual          L2-NORM 
          0                 1           2             2    2     1       0.3921640727E-02       2    2    1         0.2048605367E+00      0.4998719366E+00
          0                 2           2             7   13     1      -0.6931948785E-03       7   13    1        -0.3837497749E-01      0.6128776747E-01
          0                 3           1             7   13     1       0.4719176522E-04       7   13    1         0.2685570582E-02      0.4239795562E-02

    ------------------------------------------------
       NWT REQUIRED            3 OUTER ITERATIONS 
       AND A TOTAL OF          5 INNER ITERATIONS.
    ------------------------------------------------

 NO OUTPUT CONTROL FOR STRESS PERIOD    3   TIME STEP    1
 
 SOLVING FOR HEAD 
                                                   Max.-Head-Change                         Max.-Flux-Residual
  Residual-Control   Outer-Iter.   Inner-Iter.     Column Row Layer    Maximum-Head-Change  Column Row Layer    Maximum-Flux-Residual          L2-NORM 
          0                 1           2             2   13     1       0.5737848324E-02       4   13    1         0.3262450960E+00      0.7450786839E+00
          0                 2           2             4   13     1      -0.5480878175E-03       4   13    1        -0.3228390834E-01      0.7315651980E-01
          0                 3           1             4   13     1       0.3677863260E-04       4   13    1         0.2227302336E-02      0.4995162275E-02

    ------------------------------------------------
       NWT REQUIRED            3 OUTER ITERATIONS 
       AND A TOTAL OF          5 INNER ITERATIONS.
    ------------------------------------------------

 NO OUTPUT CONTROL FOR STRESS PERIOD    3   TIME STEP    2
 
 SOLVING FOR HEAD 
                                                   Max.-Head-Change                         Max.-Flux-Residual
  Residual-Control   Outer-Iter.   Inner-Iter.     Column Row Layer    Maximum-Head-Change  Column Row Layer    Maximum-Flux-Residual          L2-NORM 
          0                 1           2             2   13     1       0.5310463294E-02       2   13    1         0.2989811985E+00      0.7084675238E+00
          0                 2           2             4   13     1      -0.4975366923E-03       4   13    1        -0.2928598003E-01      0.6963272701E-01
          0                 3           1             4   13     1       0.3336997042E-04       4   13    1         0.2019443943E-02      0.4761546779E-02

    ------------------------------------------------
       NWT REQUIRED            3 OUTER ITERATIONS 
       AND A TOTAL OF          5 INNER ITERATIONS.
    ------------------------------------------------

 NO OUTPUT CONTROL FOR STRESS PERIOD    3   TIME STEP    3
 
 SOLVING FOR HEAD 
                                                   Max.-Head-Change                         Max.-Flux-Residual
  Residual-Control   Outer-Iter.   Inner-Iter.     Column Row Layer    Maximum-Head-Change  Column Row Layer    Maximum-Flux-Residual          L2-NORM 
          0                 1           2             2   13     1       0.4915335462E-02       2   13    1         0.2767006368E+00      0.6757128720E+00
          0                 2           2             2    2     1      -0.4665859467E-03       4   13    1        -0.2658701655E-01      0.6648371856E-01
          0                 3           1             2    2     1       0.3177276404E-04       4   13    1         0.1833410050E-02      0.4552599550E-02

    ------------------------------------------------
       NWT REQUIRED            3 OUTER ITERATIONS 
       AND A TOTAL OF          5 INNER ITERATIONS.
    ------------------------------------------------

 NO OUTPUT CONTROL FOR STRESS PERIOD    3   TIME STEP    4
 
 SOLVING FOR HEAD 
                                                   Max.-Head-Change                         Max.-Flux-Residual
  Residual-Control   Outer-Iter.   Inner-Iter.     Column Row Layer    Maximum-Head-Change  Column Row Layer    Maximum-Flux-Residual          L2-NORM 
          0                 1           2             2    2     1       0.4764247491E-02       2   13    1         0.2561076174E+00      0.6464225526E+00
          0                 2           2             2    2     1      -0.4634322824E-03       2    2    1        -0.2488671475E-01      0.6366872501E-01
          0                 3           1             2    2     1       0.3155801145E-04       2    2    1         0.1742070209E-02      0.4365937162E-02

    ------------------------------------------------
       NWT REQUIRED            3 OUTER ITERATIONS 
       AND A TOTAL OF          5 INNER ITERATIONS.
    ------------------------------------------------

 NO OUTPUT CONTROL FOR STRESS PERIOD    3   TIME STEP    5
 
 SOLVING FOR HEAD 
                                                   Max.-Head-Change                         Max.-Flux-Residual
  Residual-Control   Outer-Iter.   Inner-Iter.     Column Row Layer    Maximum-Head-Change  Column Row Layer    Maximum-Flux-Residual          L2-NORM 
          0                 1           2             2    2     1       0.4732200352E-02       2    2    1         0.2471810290E+00      0.6202312920E+00
          0                 2           2             2    2     1      -0.4603149523E-03       2    2    1        -0.2471816257E-01      0.6115467715E-01
          0                 3           1             2    2     1       0.3134573327E-04       2    2    1         0.1730271577E-02      0.4199957212E-02

    ------------------------------------------------
       NWT REQUIRED            3 OUTER ITERATIONS 
       AND A TOTAL OF          5 INNER ITERATIONS.
    ------------------------------------------------

 NO OUTPUT CONTROL FOR STRESS PERIOD    3   TIME STEP    6
 
 SOLVING FOR HEAD 
                                                   Max.-Head-Change                         Max.-Flux-Residual
  Residual-Control   Outer-Iter.   Inner-Iter.     Column Row Layer    Maximum-Head-Change  Column Row Layer    Maximum-Flux-Residual          L2-NORM 
          0                 1           2             2    2     1       0.4700606368E-02       2    2    1         0.2455194204E+00      0.5968142160E+00
          0                 2           2             2    2     1      -0.4572417024E-03       2    2    1        -0.2455200061E-01      0.5890799368E-01
          0                 3           1             2    2     1       0.3113645612E-04       2    2    1         0.1718640229E-02      0.4051671167E-02

    ------------------------------------------------
       NWT REQUIRED            3 OUTER ITERATIONS 
       AND A TOTAL OF          5 INNER ITERATIONS.
    ------------------------------------------------

 NO OUTPUT CONTROL FOR STRESS PERIOD    3   TIME STEP    7
 
 SOLVING FOR HEAD 
                                                   Max.-Head-Change                         Max.-Flux-Residual
  Residual-Control   Outer-Iter.   Inner-Iter.     Column Row Layer    Maximum-Head-Change  Column Row Layer    Maximum-Flux-Residual          L2-NORM 
          0                 1           2             2    2     1       0.4669458605E-02       2    2    1         0.2438813074E+00      0.5758725219E+00
          0                 2           2             2    2     1      -0.4542118580E-03       2    2    1        -0.2438818822E-01      0.5689915039E-01
          0                 3           1             2    2     1       0.3093013525E-04       2    2    1         0.1707173378E-02      0.3920168642E-02

    ------------------------------------------------
       NWT REQUIRED            3 OUTER ITERATIONS 
       AND A TOTAL OF          5 INNER ITERATIONS.
    ------------------------------------------------

 NO OUTPUT CONTROL FOR STRESS PERIOD    3   TIME STEP    8
 
 SOLVING FOR HEAD 
                                                   Max.-Head-Change                         Max.-Flux-Residual
  Residual-Control   Outer-Iter.   Inner-Iter.     Column Row Layer    Maximum-Head-Change  Column Row Layer    Maximum-Flux-Residual          L2-NORM 
          0                 1           2             2    2     1       0.4638749856E-02       2    2    1         0.2422663304E+00      0.5571329727E+00
          0                 2           2             2    2     1      -0.4512247179E-03       2    2    1        -0.2422668944E-01      0.5510234032E-01
          0                 3           1             2    2     1       0.3072672238E-04       2    2    1         0.1695868471E-02      0.3800779545E-02

    ------------------------------------------------
       NWT REQUIRED            3 OUTER ITERATIONS 
       AND A TOTAL OF          5 INNER ITERATIONS.
    ------------------------------------------------

 NO OUTPUT CONTROL FOR STRESS PERIOD    3   TIME STEP    9
 
 SOLVING FOR HEAD 
                                                   Max.-Head-Change                         Max.-Flux-Residual
  Residual-Control   Outer-Iter.   Inner-Iter.     Column Row Layer    Maximum-Head-Change  Column Row Layer    Maximum-Flux-Residual          L2-NORM 
          0                 1           2             2    2     1       0.4608473399E-02       2    2    1         0.2406741158E+00      0.5403538691E+00
          0                 2           2             2    2     1      -0.4482796287E-03       2    2    1        -0.2406746696E-01      0.5349350062E-01
          0                 3           1             2    2     1       0.3052617279E-04       2    2    1         0.1684722895E-02      0.3694716576E-02

    ------------------------------------------------
       NWT REQUIRED            3 OUTER ITERATIONS 
       AND A TOTAL OF          5 INNER ITERATIONS.
    ------------------------------------------------

 NO OUTPUT CONTROL FOR STRESS PERIOD    3   TIME STEP   10
 
 SOLVING FOR HEAD 
                                                   Max.-Head-Change                         Max.-Flux-Residual
  Residual-Control   Outer-Iter.   Inner-Iter.     Column Row Layer    Maximum-Head-Change  Column Row Layer    Maximum-Flux-Residual          L2-NORM 
          0                 1           2             2    2     1       0.4578535511E-02       2    2    1         0.2390997796E+00      0.5253116936E+00
          0                 2           2             2    2     1      -0.4453674732E-03       2    2    1        -0.2391003232E-01      0.5205008379E-01
          0                 3           1             2    2     1       0.3032786614E-04       2    2    1         0.1673702482E-02      0.3600745662E-02

    ------------------------------------------------
       NWT REQUIRED            3 OUTER ITERATIONS 
       AND A TOTAL OF          5 INNER ITERATIONS.
    ------------------------------------------------

 NO OUTPUT CONTROL FOR STRESS PERIOD    3   TIME STEP   11
 
 SOLVING FOR HEAD 
                                                   Max.-Head-Change                         Max.-Flux-Residual
  Residual-Control   Outer-Iter.   Inner-Iter.     Column Row Layer    Maximum-Head-Change  Column Row Layer    Maximum-Flux-Residual          L2-NORM 
          0                 1           2             2    2     1       0.4549016790E-02       2    2    1         0.2375475332E+00      0.5118069374E+00
          0                 2           2             2    2     1      -0.4424960918E-03       2    2    1        -0.2375480670E-01      0.5075393659E-01
          0                 3           1             2    2     1       0.3013233568E-04       2    2    1         0.1662836691E-02      0.3513181357E-02

    ------------------------------------------------
       NWT REQUIRED            3 OUTER ITERATIONS 
       AND A TOTAL OF          5 INNER ITERATIONS.
    ------------------------------------------------

 NO OUTPUT CONTROL FOR STRESS PERIOD    3   TIME STEP   12
 
 SOLVING FOR HEAD 
                                                   Max.-Head-Change                         Max.-Flux-Residual
  Residual-Control   Outer-Iter.   Inner-Iter.     Column Row Layer    Maximum-Head-Change  Column Row Layer    Maximum-Flux-Residual          L2-NORM 
          0                 1           2             2    2     1       0.4519910909E-02       2    2    1         0.2360170202E+00      0.4996684567E+00
          0                 2           2             2    2     1      -0.4396648691E-03       2    2    1        -0.2360175446E-01      0.4959089536E-01
          0                 3           1             2    2     1       0.2993953974E-04       2    2    1         0.1652123025E-02      0.3436755389E-02

    ------------------------------------------------
       NWT REQUIRED            3 OUTER ITERATIONS 
       AND A TOTAL OF          5 INNER ITERATIONS.
    ------------------------------------------------

 NO OUTPUT CONTROL FOR STRESS PERIOD    3   TIME STEP   13
 
 SOLVING FOR HEAD 
                                                   Max.-Head-Change                         Max.-Flux-Residual
  Residual-Control   Outer-Iter.   Inner-Iter.     Column Row Layer    Maximum-Head-Change  Column Row Layer    Maximum-Flux-Residual          L2-NORM 
          0                 1           2             2    2     1       0.4491211212E-02       2    2    1         0.2345079124E+00      0.4887377962E+00
          0                 2           2             2    2     1      -0.4368731566E-03       2    2    1        -0.2345084272E-01      0.4853933631E-01
          0                 3           1             2    2     1       0.2974943478E-04       2    2    1         0.1641559221E-02      0.3367082809E-02

    ------------------------------------------------
       NWT REQUIRED            3 OUTER ITERATIONS 
       AND A TOTAL OF          5 INNER ITERATIONS.
    ------------------------------------------------

 NO OUTPUT CONTROL FOR STRESS PERIOD    3   TIME STEP   14
 
 SOLVING FOR HEAD 
                                                   Max.-Head-Change                         Max.-Flux-Residual
  Residual-Control   Outer-Iter.   Inner-Iter.     Column Row Layer    Maximum-Head-Change  Column Row Layer    Maximum-Flux-Residual          L2-NORM 
          0                 1           2             2    2     1       0.4462824820E-02       2    2    1         0.2330153288E+00      0.4788720613E+00
          0                 2           2             2    2     1      -0.4341119208E-03       2    2    1        -0.2330158345E-01      0.4759143368E-01
          0                 3           1             2    2     1       0.2956140520E-04       2    2    1         0.1631111074E-02      0.3304041970E-02

    ------------------------------------------------
       NWT REQUIRED            3 OUTER ITERATIONS 
       AND A TOTAL OF          5 INNER ITERATIONS.
    ------------------------------------------------

 NO OUTPUT CONTROL FOR STRESS PERIOD    3   TIME STEP   15
 
 SOLVING FOR HEAD 
                                                   Max.-Head-Change                         Max.-Flux-Residual
  Residual-Control   Outer-Iter.   Inner-Iter.     Column Row Layer    Maximum-Head-Change  Column Row Layer    Maximum-Flux-Residual          L2-NORM 
          0                 1           2             2    2     1       0.4434832751E-02       2    2    1         0.2315435257E+00      0.4699384686E+00
          0                 2           2             2    2     1      -0.4313890423E-03       2    2    1        -0.2315440224E-01      0.4673193446E-01
          0                 3           1             2    2     1       0.2937598731E-04       2    2    1         0.1620808387E-02      0.3247045045E-02

    ------------------------------------------------
       NWT REQUIRED            3 OUTER ITERATIONS 
       AND A TOTAL OF          5 INNER ITERATIONS.
    ------------------------------------------------

 NO OUTPUT CONTROL FOR STRESS PERIOD    3   TIME STEP   16
 
 SOLVING FOR HEAD 
                                                   Max.-Head-Change                         Max.-Flux-Residual
  Residual-Control   Outer-Iter.   Inner-Iter.     Column Row Layer    Maximum-Head-Change  Column Row Layer    Maximum-Flux-Residual          L2-NORM 
          0                 1           2             2    2     1       0.4407229088E-02       2    2    1         0.2300921678E+00      0.4618380669E+00
          0                 2           2             2    2     1      -0.4287039453E-03       2    2    1        -0.2300926558E-01      0.4595220682E-01
          0                 3           1             2    2     1       0.2919314206E-04       2    2    1         0.1610648823E-02      0.3194967980E-02

    ------------------------------------------------
       NWT REQUIRED            3 OUTER ITERATIONS 
       AND A TOTAL OF          5 INNER ITERATIONS.
    ------------------------------------------------

 NO OUTPUT CONTROL FOR STRESS PERIOD    3   TIME STEP   17
 
 SOLVING FOR HEAD 
                                                   Max.-Head-Change                         Max.-Flux-Residual
  Residual-Control   Outer-Iter.   Inner-Iter.     Column Row Layer    Maximum-Head-Change  Column Row Layer    Maximum-Flux-Residual          L2-NORM 
          0                 1           2             2    2     1       0.4379997062E-02       2    2    1         0.2286604169E+00      0.4544617525E+00
          0                 2           2             2    2     1      -0.4260549990E-03       2    2    1        -0.2286608963E-01      0.4524107121E-01
          0                 3           1             2    2     1       0.2901275916E-04       2    2    1         0.1600626526E-02      0.3147893789E-02

    ------------------------------------------------
       NWT REQUIRED            3 OUTER ITERATIONS 
       AND A TOTAL OF          5 INNER ITERATIONS.
    ------------------------------------------------

 NO OUTPUT CONTROL FOR STRESS PERIOD    3   TIME STEP   18
 
 SOLVING FOR HEAD 
                                                   Max.-Head-Change                         Max.-Flux-Residual
  Residual-Control   Outer-Iter.   Inner-Iter.     Column Row Layer    Maximum-Head-Change  Column Row Layer    Maximum-Flux-Residual          L2-NORM 
          0                 1           2             2    2     1       0.4353151369E-02       2    2    1         0.2272489978E+00      0.4477424130E+00
          0                 2           2             2    2     1      -0.4234436319E-03       2    2    1        -0.2272494686E-01      0.4459267484E-01
          0                 3           1             2    2     1       0.2883493470E-04       2    2    1         0.1590746523E-02      0.3105138536E-02

    ------------------------------------------------
       NWT REQUIRED            3 OUTER ITERATIONS 
       AND A TOTAL OF          5 INNER ITERATIONS.
    ------------------------------------------------

 NO OUTPUT CONTROL FOR STRESS PERIOD    3   TIME STEP   19
 
 SOLVING FOR HEAD 
                                                   Max.-Head-Change                         Max.-Flux-Residual
  Residual-Control   Outer-Iter.   Inner-Iter.     Column Row Layer    Maximum-Head-Change  Column Row Layer    Maximum-Flux-Residual          L2-NORM 
          0                 1           2             2    2     1       0.4326589338E-02       2    2    1         0.2258525414E+00      0.4415879275E+00
          0                 2           2             2    2     1      -0.4208598585E-03       2    2    1        -0.2258530042E-01      0.4399820735E-01
          0                 3           1             2    2     1       0.2865898918E-04       2    2    1         0.1580971273E-02      0.3065258862E-02

    ------------------------------------------------
       NWT REQUIRED            3 OUTER ITERATIONS 
       AND A TOTAL OF          5 INNER ITERATIONS.
    ------------------------------------------------

 NO OUTPUT CONTROL FOR STRESS PERIOD    3   TIME STEP   20
 
 SOLVING FOR HEAD 
                                                   Max.-Head-Change                         Max.-Flux-Residual
  Residual-Control   Outer-Iter.   Inner-Iter.     Column Row Layer    Maximum-Head-Change  Column Row Layer    Maximum-Flux-Residual          L2-NORM 
          0                 1           2             2    2     1       0.4300478965E-02       2    2    1         0.2244798663E+00      0.4359393856E+00
          0                 2           2             2    2     1      -0.4183200194E-03       2    2    1        -0.2244803214E-01      0.4345138173E-01
          0                 3           1             2    2     1       0.2848603546E-04       2    2    1         0.1571362492E-02      0.3028301030E-02

    ------------------------------------------------
       NWT REQUIRED            3 OUTER ITERATIONS 
       AND A TOTAL OF          5 INNER ITERATIONS.
    ------------------------------------------------

 NO OUTPUT CONTROL FOR STRESS PERIOD    3   TIME STEP   21
 
 SOLVING FOR HEAD 
                                                   Max.-Head-Change                         Max.-Flux-Residual
  Residual-Control   Outer-Iter.   Inner-Iter.     Column Row Layer    Maximum-Head-Change  Column Row Layer    Maximum-Flux-Residual          L2-NORM 
          0                 1           2             2    2     1       0.4274640541E-02       2    2    1         0.2231215352E+00      0.4307383254E+00
          0                 2           2             2    2     1      -0.4158066334E-03       2    2    1        -0.2231219824E-01      0.4294771498E-01
          0                 3           1             2    2     1       0.2831488352E-04       2    2    1         0.1561854118E-02      0.2994621151E-02

    ------------------------------------------------
       NWT REQUIRED            3 OUTER ITERATIONS 
       AND A TOTAL OF          5 INNER ITERATIONS.
    ------------------------------------------------

 NO OUTPUT CONTROL FOR STRESS PERIOD    3   TIME STEP   22
 
 SOLVING FOR HEAD 
                                                   Max.-Head-Change                         Max.-Flux-Residual
  Residual-Control   Outer-Iter.   Inner-Iter.     Column Row Layer    Maximum-Head-Change  Column Row Layer    Maximum-Flux-Residual          L2-NORM 
          0                 1           2             2    2     1       0.4249069433E-02       2    2    1         0.2217773042E+00      0.4259341993E+00
          0                 2           2             2    2     1      -0.4133192505E-03       2    2    1        -0.2217777439E-01      0.4248109880E-01
          0                 3           1             2    2     1       0.2814550214E-04       2    2    1         0.1552444457E-02      0.2963466062E-02

    ------------------------------------------------
       NWT REQUIRED            3 OUTER ITERATIONS 
       AND A TOTAL OF          5 INNER ITERATIONS.
    ------------------------------------------------

 NO OUTPUT CONTROL FOR STRESS PERIOD    3   TIME STEP   23
 
 SOLVING FOR HEAD 
                                                   Max.-Head-Change                         Max.-Flux-Residual
  Residual-Control   Outer-Iter.   Inner-Iter.     Column Row Layer    Maximum-Head-Change  Column Row Layer    Maximum-Flux-Residual          L2-NORM 
          0                 1           2             2    2     1       0.4223934285E-02       2    2    1         0.2204560075E+00      0.4214811018E+00
          0                 2           2             2    2     1      -0.4108742747E-03       2    2    1        -0.2204564396E-01      0.4204810077E-01
          0                 3           1             2    2     1       0.2797900841E-04       2    2    1         0.1543195329E-02      0.2934244818E-02

    ------------------------------------------------
       NWT REQUIRED            3 OUTER ITERATIONS 
       AND A TOTAL OF          5 INNER ITERATIONS.
    ------------------------------------------------

 NO OUTPUT CONTROL FOR STRESS PERIOD    3   TIME STEP   24
 
 SOLVING FOR HEAD 
                                                   Max.-Head-Change                         Max.-Flux-Residual
  Residual-Control   Outer-Iter.   Inner-Iter.     Column Row Layer    Maximum-Head-Change  Column Row Layer    Maximum-Flux-Residual          L2-NORM 
          0                 1           2             2    2     1       0.4199142071E-02       2    2    1         0.2191527778E+00      0.4173408621E+00
          0                 2           2             2    2     1      -0.4084626574E-03       2    2    1        -0.2191532027E-01      0.4164516098E-01
          0                 3           1             2    2     1       0.2781478627E-04       2    2    1         0.1534072676E-02      0.2906891072E-02

    ------------------------------------------------
       NWT REQUIRED            3 OUTER ITERATIONS 
       AND A TOTAL OF          5 INNER ITERATIONS.
    ------------------------------------------------

 NO OUTPUT CONTROL FOR STRESS PERIOD    3   TIME STEP   25
 
 SOLVING FOR HEAD 
                                                   Max.-Head-Change                         Max.-Flux-Residual
  Residual-Control   Outer-Iter.   Inner-Iter.     Column Row Layer    Maximum-Head-Change  Column Row Layer    Maximum-Flux-Residual          L2-NORM 
          0                 1           2             2    2     1       0.4174600530E-02       2    2    1         0.2178627913E+00      0.4134797904E+00
          0                 2           2             2    2     1      -0.4060754240E-03       2    2    1        -0.2178632090E-01      0.4126956013E-01
          0                 3           1             2    2     1       0.2765222511E-04       2    2    1         0.1525042735E-02      0.2881935758E-02

    ------------------------------------------------
       NWT REQUIRED            3 OUTER ITERATIONS 
       AND A TOTAL OF          5 INNER ITERATIONS.
    ------------------------------------------------

 NO OUTPUT CONTROL FOR STRESS PERIOD    3   TIME STEP   26
 
 SOLVING FOR HEAD 
                                                   Max.-Head-Change                         Max.-Flux-Residual
  Residual-Control   Outer-Iter.   Inner-Iter.     Column Row Layer    Maximum-Head-Change  Column Row Layer    Maximum-Flux-Residual          L2-NORM 
          0                 1           2             2    2     1       0.4150391834E-02       2    2    1         0.2165903393E+00      0.4098650537E+00
          0                 2           2             2    2     1      -0.4037205679E-03       2    2    1        -0.2165907503E-01      0.4092682611E-01
          0                 3           1             2    2     1       0.2749186784E-04       2    2    1         0.1516135520E-02      0.2858546844E-02

    ------------------------------------------------
       NWT REQUIRED            3 OUTER ITERATIONS 
       AND A TOTAL OF          5 INNER ITERATIONS.
    ------------------------------------------------

 NO OUTPUT CONTROL FOR STRESS PERIOD    3   TIME STEP   27
 
 SOLVING FOR HEAD 
                                                   Max.-Head-Change                         Max.-Flux-Residual
  Residual-Control   Outer-Iter.   Inner-Iter.     Column Row Layer    Maximum-Head-Change  Column Row Layer    Maximum-Flux-Residual          L2-NORM 
          0                 1           2             2    2     1       0.4126511094E-02       2    2    1         0.2153351449E+00      0.4064678185E+00
          0                 2           2             2    2     1      -0.4013976122E-03       2    2    1        -0.2153355489E-01      0.4058387104E-01
          0                 3           1             2    2     1       0.2733368347E-04       2    2    1         0.1507349112E-02      0.2835223243E-02

    ------------------------------------------------
       NWT REQUIRED            3 OUTER ITERATIONS 
       AND A TOTAL OF          5 INNER ITERATIONS.
    ------------------------------------------------

 NO OUTPUT CONTROL FOR STRESS PERIOD    3   TIME STEP   28
 
 SOLVING FOR HEAD 
                                                   Max.-Head-Change                         Max.-Flux-Residual
  Residual-Control   Outer-Iter.   Inner-Iter.     Column Row Layer    Maximum-Head-Change  Column Row Layer    Maximum-Flux-Residual          L2-NORM 
          0                 1           2             2    2     1       0.4102953139E-02       2    2    1         0.2140969548E+00      0.4032579467E+00
          0                 2           2             2    2     1      -0.3991060559E-03       2    2    1        -0.2140973524E-01      0.4026944594E-01
          0                 3           1             2    2     1       0.2717763674E-04       2    2    1         0.1498681733E-02      0.2814509076E-02

    ------------------------------------------------
       NWT REQUIRED            3 OUTER ITERATIONS 
       AND A TOTAL OF          5 INNER ITERATIONS.
    ------------------------------------------------

 NO OUTPUT CONTROL FOR STRESS PERIOD    3   TIME STEP   29
 
 SOLVING FOR HEAD 
                                                   Max.-Head-Change                         Max.-Flux-Residual
  Residual-Control   Outer-Iter.   Inner-Iter.     Column Row Layer    Maximum-Head-Change  Column Row Layer    Maximum-Flux-Residual          L2-NORM 
          0                 1           2             4   13     1       0.9279378985E-02       4   13    1         0.5331634570E+00      0.1129361325E+01
          0                 2           2             4   13     1      -0.8928503052E-03       4   13    1        -0.5274537437E-01      0.1105072739E+00
          0                 3           1             4   13     1       0.5989610090E-04       4   13    1         0.3637934295E-02      0.7507072825E-02

    ------------------------------------------------
       NWT REQUIRED            3 OUTER ITERATIONS 
       AND A TOTAL OF          5 INNER ITERATIONS.
    ------------------------------------------------

 NO OUTPUT CONTROL FOR STRESS PERIOD    3   TIME STEP   30



 STREAM LISTING     PERIOD      3   STEP       30

 LAYER ROW COL. STREAM  RCH.  FLOW INTO     FLOW TO   FLOW OUT OF   OVRLND.     DIRECT     STREAM       STREAM     STREAM     STREAM   STREAMBED  STREAMBED
                SEG.NO.  NO.  STRM. RCH.    AQUIFER    STRM. RCH.    RUNOFF     PRECIP       ET          HEAD       DEPTH      WIDTH   CONDCTNC.   GRADIENT

   1    1    1     1     1    5.4376E+01  3.5202E-01   5.4024E+01  0.000E+00  0.000E+00  0.000E+00  1.09450E+03  1.455E+00  1.756E+01  7.901E-02  1.485E+00
   1    2    2     1     2    5.4024E+01  5.4505E-01   5.3479E+01  0.000E+00  0.000E+00  0.000E+00  1.08951E+03  1.449E+00  1.750E+01  1.225E-01  1.483E+00
   1    3    3     1     3    5.3479E+01  4.6474E-01   5.3014E+01  0.000E+00  0.000E+00  0.000E+00  1.08386E+03  1.443E+00  1.743E+01  1.046E-01  1.481E+00
   1    3    4     1     4    5.3014E+01  4.2788E-01   5.2587E+01  0.000E+00  0.000E+00  0.000E+00  1.07884E+03  1.437E+00  1.738E+01  9.643E-02  1.479E+00
   1    4    5     2     1    5.0587E+01  3.7745E-01   5.0209E+01  0.000E+00  0.000E+00  0.000E+00  1.07377E+03  1.839E+00  1.200E+01  7.800E-02  1.613E+00
   1    5    6     2     2    5.0209E+01  2.8990E-01   4.9919E+01  0.000E+00  0.000E+00  0.000E+00  1.06834E+03  1.832E+00  1.200E+01  6.000E-02  1.611E+00
   1    6    6     2     3    4.9919E+01  2.8952E-01   4.9630E+01  0.000E+00  0.000E+00  0.000E+00  1.06362E+03  1.825E+00  1.200E+01  6.000E-02  1.608E+00
   1    7    6     2     4    4.9630E+01  2.8914E-01   4.9341E+01  0.000E+00  0.000E+00  0.000E+00  1.05889E+03  1.819E+00  1.200E+01  6.000E-02  1.606E+00
   1    8    6     2     5    4.9341E+01  2.8876E-01   4.9052E+01  0.000E+00  0.000E+00  0.000E+00  1.05417E+03  1.813E+00  1.200E+01  6.000E-02  1.604E+00
   1    3    5     3     1    2.0000E+00  2.8252E-01   1.7175E+00  0.000E+00  0.000E+00  0.000E+00  1.07555E+03  1.909E+00  9.636E+00  7.227E-02  1.955E+00
   1    3    6     3     2    1.7175E+00  2.4905E-01   1.4684E+00  0.000E+00  0.000E+00  0.000E+00  1.07264E+03  1.727E+00  8.909E+00  6.682E-02  1.864E+00
   1    3    7     3     3    1.4684E+00  1.9718E-01   1.2712E+00  0.000E+00  0.000E+00  0.000E+00  1.06987E+03  1.555E+00  8.218E+00  5.547E-02  1.777E+00
   1    4    8     3     4    1.2712E+00  2.2567E-01   1.0456E+00  0.000E+00  0.000E+00  0.000E+00  1.06682E+03  1.364E+00  7.455E+00  6.709E-02  1.682E+00
   1    5    8     3     5    1.0456E+00  1.5790E-01   8.8768E-01  0.000E+00  0.000E+00  0.000E+00  1.06362E+03  1.164E+00  6.655E+00  4.991E-02  1.582E+00
   1    6    8     3     6    8.8768E-01  5.5980E-02   8.3170E-01  0.000E+00  0.000E+00  0.000E+00  1.06158E+03  1.036E+00  6.145E+00  1.844E-02  1.518E+00
   1    5   10     4     1    1.0000E+01  9.0919E-02   9.9091E+00  0.000E+00  0.000E+00  0.000E+00  1.07836E+03  6.368E-01  1.000E+01  2.500E-02  1.212E+00
   1    5    9     4     2    9.9091E+00  1.8158E-01   9.7275E+00  0.000E+00  0.000E+00  0.000E+00  1.07154E+03  6.315E-01  1.000E+01  5.000E-02  1.211E+00
   1    6    8     4     3    9.7275E+00  1.2689E-01   9.6006E+00  0.000E+00  0.000E+00  0.000E+00  1.06381E+03  6.256E-01  1.000E+01  3.500E-02  1.209E+00
   1    6    8     5     1    1.0432E+01  2.2686E-01   1.0205E+01  0.000E+00  0.000E+00  0.000E+00  1.05868E+03  6.790E-01  1.542E+01  6.166E-02  1.226E+00
   1    7    7     5     2    1.0205E+01  2.7894E-01   9.9265E+00  0.000E+00  0.000E+00  0.000E+00  1.05417E+03  6.732E-01  1.519E+01  7.594E-02  1.224E+00
   1    8    7     5     3    9.9265E+00  1.9221E-01   9.7343E+00  0.000E+00  0.000E+00  0.000E+00  1.04992E+03  6.676E-01  1.497E+01  5.241E-02  1.223E+00
   1    8    6     5     4    9.7343E+00  1.3577E-01   9.5985E+00  0.000E+00  0.000E+00  0.000E+00  1.04691E+03  6.637E-01  1.482E+01  3.706E-02  1.221E+00
   1    9    6     6     1    5.8650E+01  3.0201E-01   5.8348E+01  0.000E+00  0.000E+00  0.000E+00  1.04476E+03  2.034E+00  1.200E+01  6.000E-02  1.678E+00
   1   10    7     6     2    5.8348E+01  3.0164E-01   5.8047E+01  0.000E+00  0.000E+00  0.000E+00  1.04021E+03  2.027E+00  1.200E+01  6.000E-02  1.676E+00
   1   11    7     6     3    5.8047E+01  3.0126E-01   5.7745E+01  0.000E+00  0.000E+00  0.000E+00  1.03566E+03  2.021E+00  1.200E+01  6.000E-02  1.674E+00
   1   12    7     6     4    5.7745E+01  3.0088E-01   5.7445E+01  0.000E+00  0.000E+00  0.000E+00  1.03111E+03  2.015E+00  1.200E+01  6.000E-02  1.672E+00
   1   13    7     6     5    5.7445E+01  1.9557E-02   5.7425E+01  0.000E+00  0.000E+00  0.000E+00  1.02792E+03  2.011E+00  1.200E+01  2.400E-02  2.716E-01
   1   14    9     7     1    1.5000E+02  1.3350E+00   1.4866E+02  0.000E+00  0.000E+00  0.000E+00  1.03987E+03  2.288E+00  5.529E+01  5.593E-01  7.957E-01
   1   13    8     7     2    1.4866E+02  1.8309E+00   1.4683E+02  0.000E+00  0.000E+00  0.000E+00  1.03478E+03  2.279E+00  5.526E+01  6.148E-01  9.927E-01
   1   13    7     7     3    1.4683E+02  1.4433E+00   1.4539E+02  0.000E+00  0.000E+00  0.000E+00  1.02969E+03  2.271E+00  5.522E+01  5.585E-01  8.615E-01
   1   13    6     8     1    2.0282E+02  1.0334E+00   2.0178E+02  0.000E+00  0.000E+00  0.000E+00  1.02503E+03  3.151E+00  4.569E+01  4.656E-01  7.398E-01
   1   13    5     8     2    2.0178E+02  2.2869E-01   2.0155E+02  0.000E+00  0.000E+00  0.000E+00  1.01877E+03  3.148E+00  4.564E+01  4.651E-01  1.639E-01
   1   13    4     8     3    2.0155E+02 -2.0703E+00   2.0362E+02  0.000E+00  0.000E+00  0.000E+00  1.01253E+03  3.153E+00  4.572E+01  4.659E+00 -1.481E-01
   1   13    3     8     4    2.0362E+02 -3.2634E+00   2.0689E+02  0.000E+00  0.000E+00  0.000E+00  1.00629E+03  3.168E+00  4.594E+01  4.682E+00 -2.324E-01
   1   13    2     8     5    2.0689E+02 -2.0910E+00   2.0898E+02  0.000E+00  0.000E+00  0.000E+00  1.00006E+03  3.184E+00  4.617E+01  4.704E+00 -1.482E-01
   1   13    1     8     6    2.0898E+02 -1.6691E+00   2.1065E+02  0.000E+00  0.000E+00  0.000E+00  9.95070E+02  3.195E+00  4.632E+01  2.832E+00 -1.964E-01
   1    8    6     9     1    0.0000E+00  0.0000E+00   0.0000E+00  0.000E+00  0.000E+00  0.000E+00  1.07875E+03  0.000E+00  4.000E+00  0.000E+00  1.000E+00
   1    8    5     9     2    0.0000E+00  0.0000E+00   0.0000E+00  0.000E+00  0.000E+00  0.000E+00  1.07825E+03  0.000E+00  4.000E+00  0.000E+00  1.000E+00





UNSATURATED ZONE PACKAGE VOLUMETRIC BUDGET FOR  TIME STEP    30 STRESS PERIOD    3
  ------------------------------------------------------------------------------



     CUMULATIVE VOLUMES      L**3       RATES FOR THIS TIME STEP      L**3/T
     ------------------                 ------------------------

           IN:                                      IN:
           ---                                      ---
        INFILTRATION =    23256673.1162          INFILTRATION =           4.4075

          OUT:                                     OUT:
          ----                                     ----
              UZF ET =     3813499.6316                UZF ET =           0.7250
        UZF RECHARGE =       73224.0000          UZF RECHARGE =       0.0000E+00

            IN - OUT =    19369949.4846              IN - OUT =           3.6825

          STORAGE:                                 STORAGE:
          --------                                 --------
      STORAGE CHANGE =    19369949.3667        STORAGE CHANGE =           3.6825

 PERCENT DISCREPANCY IS DIFFERENCE BETWEEN IN-OUT MINUS CHANGE IN STORAGE
 DIVIDED BY THE AVERAGE OF IN AND OUT TIMES 100

 PERCENT DISCREPANCY =           0.00     PERCENT DISCREPANCY =           0.00






1
  VOLUMETRIC BUDGET FOR ENTIRE MODEL AT END OF TIME STEP   30, STRESS PERIOD   3
  ------------------------------------------------------------------------------

     CUMULATIVE VOLUMES      L**3       RATES FOR THIS TIME STEP      L**3/T
     ------------------                 ------------------------

           IN:                                      IN:
           ---                                      ---
               AG WELLS  =           0.0000                 AG WELLS  =           0.0000
        DIVERSION SEGMEN =           0.0000          DIVERSION SEGMEN =           0.0000
    TS         GW IRRIGA =           0.0000      TS         GW IRRIGA =           0.0000
    TION         SW IRRI =           0.0000      TION         SW IRRI =           0.0000
    GATION      SYSTEM L =           0.0000      GATION      SYSTEM L =           0.0000
    OSSES GW      SYSTEM =           0.0000      OSSES GW      SYSTEM =           0.0000

                TOTAL IN =           0.0000                  TOTAL IN =           0.0000

          OUT:                                     OUT:
          ----                                     ----
               AG WELLS  =           0.0000                 AG WELLS  =           0.0000
        DIVERSION SEGMEN =           0.0000          DIVERSION SEGMEN =           0.0000
    TS         GW IRRIGA =           0.0000      TS         GW IRRIGA =           0.0000
    TION         SW IRRI =           0.0000      TION         SW IRRI =           0.0000
    GATION      SYSTEM L =           0.0000      GATION      SYSTEM L =           0.0000
    OSSES GW      SYSTEM =           0.0000      OSSES GW      SYSTEM =           0.0000

               TOTAL OUT =           0.0000                 TOTAL OUT =           0.0000

                IN - OUT =           0.0000                  IN - OUT =           0.0000

     PERCENT DISCREPANCY =           0.00         PERCENT DISCREPANCY =           0.00



1
  VOLUMETRIC BUDGET FOR ENTIRE MODEL AT END OF TIME STEP   30, STRESS PERIOD   3
  ------------------------------------------------------------------------------

     CUMULATIVE VOLUMES      L**3       RATES FOR THIS TIME STEP      L**3/T
     ------------------                 ------------------------

           IN:                                      IN:
           ---                                      ---
             STORAGE     =     3122516.0000               STORAGE     =           0.4872
       CONSTANT HEAD     =           0.0000         CONSTANT HEAD     =           0.0000
     HEAD DEP BOUNDS     =     1527280.1250       HEAD DEP BOUNDS     =           0.2857
      STREAM LEAKAGE     =    61979672.0000        STREAM LEAKAGE     =          12.8226
        UZF RECHARGE     =       73223.9531          UZF RECHARGE     =           0.0000
               GW ET     =           0.0000                 GW ET     =           0.0000
     SURFACE LEAKAGE     =           0.0000       SURFACE LEAKAGE     =           0.0000
           AG WELLS      =           0.0000             AG WELLS      =           0.0000

                TOTAL IN =    66702692.0000                  TOTAL IN =          13.5955

          OUT:                                     OUT:
          ----                                     ----
             STORAGE     =     9107252.0000               STORAGE     =           4.2117
       CONSTANT HEAD     =           0.0000         CONSTANT HEAD     =           0.0000
     HEAD DEP BOUNDS     =     1544993.8750       HEAD DEP BOUNDS     =           0.2910
      STREAM LEAKAGE     =    56052144.0000        STREAM LEAKAGE     =           9.0938
        UZF RECHARGE     =           0.0000          UZF RECHARGE     =           0.0000
               GW ET     =           0.0000                 GW ET     =           0.0000
     SURFACE LEAKAGE     =           0.0000       SURFACE LEAKAGE     =           0.0000
           AG WELLS      =           0.0000             AG WELLS      =           0.0000

               TOTAL OUT =    66704392.0000                 TOTAL OUT =          13.5965

                IN - OUT =       -1700.0000                  IN - OUT =      -1.0576E-03

     PERCENT DISCREPANCY =          -0.00         PERCENT DISCREPANCY =          -0.01






         TIME SUMMARY AT END OF TIME STEP   30 IN STRESS PERIOD    3
                    SECONDS     MINUTES      HOURS       DAYS        YEARS
                    -----------------------------------------------------------
   TIME STEP LENGTH  87667.      1461.1      24.352      1.0147     2.77799E-03
 STRESS PERIOD TIME 2.63000E+06  43833.      730.56      30.440     8.33397E-02
         TOTAL TIME 5.34640E+06  89107.      1485.1      61.880     0.16942    
1
1
                            STRESS PERIOD NO.    4, LENGTH =   2630000.    
                            -----------------------------------------------

                              NUMBER OF TIME STEPS =    30

                               MULTIPLIER FOR DELT =     1.000

                            INITIAL TIME STEP SIZE =   87666.66    

 REUSING NON-PARAMETER GHB CELLS FROM LAST STRESS PERIOD

      2 GHB CELLS

 REUSING STREAM SEGMENT DATA FROM LAST STRESS PERIOD



            AREAL INFILTRATION RATE
 READING ON UNIT   19 WITH FORMAT: (10F4.0)            

            1           2           3           4           5           6           7           8           9          10
 ........................................................................................................................
   1   1.2000E-09   0.000       0.000       0.000       0.000       0.000       0.000       0.000       0.000       0.000    
   2   2.1000E-09  2.0000E-09  8.0000E-10  8.5000E-09   0.000       0.000       0.000       0.000       0.000       0.000    
   3   5.0000E-10  1.1000E-09  8.8000E-09  5.5000E-09   0.000       0.000       0.000       0.000       0.000       0.000    
   4   8.5000E-09  1.1000E-09  1.1000E-09  1.1000E-09  2.0000E-09   0.000       0.000       0.000       0.000       0.000    
   5   8.5000E-09  1.1000E-09  1.1000E-09  1.1000E-09  1.1000E-09   0.000       0.000       0.000       0.000       0.000    
   6   8.5000E-09  5.2000E-09  2.1000E-09  1.1000E-09  1.5000E-09   0.000       0.000       0.000       0.000       0.000    
   7   8.5000E-09  5.2000E-09  2.1000E-09  1.2000E-09  2.0000E-09   0.000       0.000       0.000       0.000       0.000    
   8   5.0000E-10  5.2000E-09  2.1000E-09  1.2000E-09  5.0000E-09   0.000       0.000       0.000       0.000       0.000    
   9   5.0000E-10  5.2000E-09  2.1000E-09  1.2000E-09  5.0000E-09   0.000       0.000       0.000       0.000       0.000    
  10   5.0000E-10  5.2000E-09  2.1000E-09  1.2000E-09  5.8000E-09   0.000       0.000       0.000       0.000       0.000    
  11   1.0000E-10  1.1000E-09  1.1000E-09  1.2000E-09  5.0000E-09   0.000       0.000       0.000       0.000       0.000    
  12   1.1000E-09  1.1000E-09  1.1000E-09  1.1000E-09  2.0000E-09   0.000       0.000       0.000       0.000       0.000    
  13   1.1000E-09  2.2000E-09  2.2000E-09  2.1000E-09  1.0000E-09   0.000       0.000       0.000       0.000       0.000    
  14   2.0000E-10  5.5000E-09  5.5000E-09  5.2000E-09  1.0000E-09   0.000       0.000       0.000       0.000       0.000    
  15    0.000      8.8000E-09  8.8000E-09   0.000       0.000       0.000       0.000       0.000       0.000       0.000    

                  ET RATE =  5.000000E-10

 USING ET EXTINCTION DEPTH FROM PREVIOUS STRESS PERIOD. CURRENT PERIOD IS:       4

 USING EXTINCTION WATER CONTENT FROM PREVIOUS STRESS PERIOD. CURRENT PERIOD IS:       4

 USING AIR ENTRY PRESSURE FROM PREVIOUS STRESS PERIOD. CURRENT PERIOD IS:       4

 USING ROOT PRESSURE HEAD FROM PREVIOUS STRESS PERIOD. CURRENT PERIOD IS:       4

 USING ROOT ACTIVITY FROM PREVIOUS STRESS PERIOD. CURRENT PERIOD IS:       4

 PROCESSING AG STRESS PERIOD DATA

 READING AG STRESS PERIOD DATA

 READING IRRIGATION SEGMENT

 READING IRRIGATION WELL

 READING SUPPLEMENTAL WELL

 END PROCESSING AG STRESS PERIOD DATA OPTIONS
 
 SOLVING FOR HEAD 
                                                   Max.-Head-Change                         Max.-Flux-Residual
  Residual-Control   Outer-Iter.   Inner-Iter.     Column Row Layer    Maximum-Head-Change  Column Row Layer    Maximum-Flux-Residual          L2-NORM 
          0                 1           2             2   13     1       0.9722706591E-02       4   13    1         0.5574255494E+00      0.1192908535E+01
          0                 2           2             4   13     1      -0.9333061353E-03       4   13    1        -0.5513982280E-01      0.1166980764E+00
          0                 3           1             4   13     1       0.6258911565E-04       4   13    1         0.3801787017E-02      0.7929388182E-02

    ------------------------------------------------
       NWT REQUIRED            3 OUTER ITERATIONS 
       AND A TOTAL OF          5 INNER ITERATIONS.
    ------------------------------------------------

 NO OUTPUT CONTROL FOR STRESS PERIOD    4   TIME STEP    1
 
 SOLVING FOR HEAD 
                                                   Max.-Head-Change                         Max.-Flux-Residual
  Residual-Control   Outer-Iter.   Inner-Iter.     Column Row Layer    Maximum-Head-Change  Column Row Layer    Maximum-Flux-Residual          L2-NORM 
          0                 1           2             2   13     1       0.8971061845E-02       2   13    1         0.5067236770E+00      0.1125586528E+01
          0                 2           2             4   13     1      -0.8448097948E-03       4   13    1        -0.4987501123E-01      0.1102302457E+00
          0                 3           1             4   13     1       0.5665856758E-04       4   13    1         0.3439018086E-02      0.7500750881E-02

    ------------------------------------------------
       NWT REQUIRED            3 OUTER ITERATIONS 
       AND A TOTAL OF          5 INNER ITERATIONS.
    ------------------------------------------------

 NO OUTPUT CONTROL FOR STRESS PERIOD    4   TIME STEP    2
 
 SOLVING FOR HEAD 
                                                   Max.-Head-Change                         Max.-Flux-Residual
  Residual-Control   Outer-Iter.   Inner-Iter.     Column Row Layer    Maximum-Head-Change  Column Row Layer    Maximum-Flux-Residual          L2-NORM 
          0                 1           2             2   13     1       0.8278338575E-02       2   13    1         0.4675355386E+00      0.1065456309E+01
          0                 2           2             2   13     1      -0.7684702094E-03       4   13    1        -0.4514471967E-01      0.1044579349E+00
          0                 3           1             4   13     1       0.5129399535E-04       4   13    1         0.3111011880E-02      0.7116533049E-02

    ------------------------------------------------
       NWT REQUIRED            3 OUTER ITERATIONS 
       AND A TOTAL OF          5 INNER ITERATIONS.
    ------------------------------------------------

 NO OUTPUT CONTROL FOR STRESS PERIOD    4   TIME STEP    3
 
 SOLVING FOR HEAD 
                                                   Max.-Head-Change                         Max.-Flux-Residual
  Residual-Control   Outer-Iter.   Inner-Iter.     Column Row Layer    Maximum-Head-Change  Column Row Layer    Maximum-Flux-Residual          L2-NORM 
          0                 1           2             2   13     1       0.7639760265E-02       2   13    1         0.4314124332E+00      0.1011783666E+01
          0                 2           2             2   13     1      -0.7094925626E-03       2   13    1        -0.4118273604E-01      0.9931139464E-01
          0                 3           1             4   13     1       0.4650368715E-04       4   13    1         0.2818176009E-02      0.6778388382E-02

    ------------------------------------------------
       NWT REQUIRED            3 OUTER ITERATIONS 
       AND A TOTAL OF          5 INNER ITERATIONS.
    ------------------------------------------------

 NO OUTPUT CONTROL FOR STRESS PERIOD    4   TIME STEP    4
 
 SOLVING FOR HEAD 
                                                   Max.-Head-Change                         Max.-Flux-Residual
  Residual-Control   Outer-Iter.   Inner-Iter.     Column Row Layer    Maximum-Head-Change  Column Row Layer    Maximum-Flux-Residual          L2-NORM 
          0                 1           2             2   13     1       0.7051271913E-02       2   13    1         0.3981248034E+00      0.9639309827E+00
          0                 2           2             2   13     1      -0.6550697631E-03       2   13    1        -0.3801813461E-01      0.9472602238E-01
          0                 3           1             2    2     1       0.4352505581E-04       4   13    1         0.2552272193E-02      0.6475463038E-02

    ------------------------------------------------
       NWT REQUIRED            3 OUTER ITERATIONS 
       AND A TOTAL OF          5 INNER ITERATIONS.
    ------------------------------------------------

 NO OUTPUT CONTROL FOR STRESS PERIOD    4   TIME STEP    5
 
 SOLVING FOR HEAD 
                                                   Max.-Head-Change                         Max.-Flux-Residual
  Residual-Control   Outer-Iter.   Inner-Iter.     Column Row Layer    Maximum-Head-Change  Column Row Layer    Maximum-Flux-Residual          L2-NORM 
          0                 1           2             2    2     1       0.6530578794E-02       2   13    1         0.3674415631E+00      0.9212705001E+00
          0                 2           2             2    2     1      -0.6352488475E-03       2   13    1        -0.3510023980E-01      0.9064137031E-01
          0                 3           1             2    2     1       0.4325807581E-04       2    2    1         0.2386429274E-02      0.6206956021E-02

    ------------------------------------------------
       NWT REQUIRED            3 OUTER ITERATIONS 
       AND A TOTAL OF          5 INNER ITERATIONS.
    ------------------------------------------------

 NO OUTPUT CONTROL FOR STRESS PERIOD    4   TIME STEP    6
 
 SOLVING FOR HEAD 
                                                   Max.-Head-Change                         Max.-Flux-Residual
  Residual-Control   Outer-Iter.   Inner-Iter.     Column Row Layer    Maximum-Head-Change  Column Row Layer    Maximum-Flux-Residual          L2-NORM 
          0                 1           2             2    2     1       0.6490744694E-02       2   13    1         0.3391661976E+00      0.8832702168E+00
          0                 2           2             2    2     1      -0.6313740483E-03       2    2    1        -0.3388241289E-01      0.8700450367E-01
          0                 3           1             2    2     1       0.4299421659E-04       2    2    1         0.2371768941E-02      0.5967429474E-02

    ------------------------------------------------
       NWT REQUIRED            3 OUTER ITERATIONS 
       AND A TOTAL OF          5 INNER ITERATIONS.
    ------------------------------------------------

 NO OUTPUT CONTROL FOR STRESS PERIOD    4   TIME STEP    7
 
 SOLVING FOR HEAD 
                                                   Max.-Head-Change                         Max.-Flux-Residual
  Residual-Control   Outer-Iter.   Inner-Iter.     Column Row Layer    Maximum-Head-Change  Column Row Layer    Maximum-Flux-Residual          L2-NORM 
          0                 1           2             2    2     1       0.6451547572E-02       2    2    1         0.3367622684E+00      0.8494204730E+00
          0                 2           2             2    2     1      -0.6275612092E-03       2    2    1        -0.3367632998E-01      0.8376818847E-01
          0                 3           1             2    2     1       0.4273457678E-04       2    2    1         0.2357343150E-02      0.5755239223E-02

    ------------------------------------------------
       NWT REQUIRED            3 OUTER ITERATIONS 
       AND A TOTAL OF          5 INNER ITERATIONS.
    ------------------------------------------------

 NO OUTPUT CONTROL FOR STRESS PERIOD    4   TIME STEP    8
 
 SOLVING FOR HEAD 
                                                   Max.-Head-Change                         Max.-Flux-Residual
  Residual-Control   Outer-Iter.   Inner-Iter.     Column Row Layer    Maximum-Head-Change  Column Row Layer    Maximum-Flux-Residual          L2-NORM 
          0                 1           2             2    2     1       0.6412804297E-02       2    2    1         0.3347254048E+00      0.8192800563E+00
          0                 2           2             2    2     1      -0.6237925182E-03       2    2    1        -0.3347264186E-01      0.8088706971E-01
          0                 3           1             2    2     1       0.4247794296E-04       2    2    1         0.2343084981E-02      0.5565583269E-02

    ------------------------------------------------
       NWT REQUIRED            3 OUTER ITERATIONS 
       AND A TOTAL OF          5 INNER ITERATIONS.
    ------------------------------------------------

 NO OUTPUT CONTROL FOR STRESS PERIOD    4   TIME STEP    9
 
 SOLVING FOR HEAD 
                                                   Max.-Head-Change                         Max.-Flux-Residual
  Residual-Control   Outer-Iter.   Inner-Iter.     Column Row Layer    Maximum-Head-Change  Column Row Layer    Maximum-Flux-Residual          L2-NORM 
          0                 1           2             2    2     1       0.6374594176E-02       2    2    1         0.3327166124E+00      0.7924175737E+00
          0                 2           2             2    2     1      -0.6200756893E-03       2    2    1        -0.3327176089E-01      0.7831954059E-01
          0                 3           1             2    2     1       0.4222484101E-04       2    2    1         0.2329023331E-02      0.5396843721E-02

    ------------------------------------------------
       NWT REQUIRED            3 OUTER ITERATIONS 
       AND A TOTAL OF          5 INNER ITERATIONS.
    ------------------------------------------------

 NO OUTPUT CONTROL FOR STRESS PERIOD    4   TIME STEP   10
 
 SOLVING FOR HEAD 
                                                   Max.-Head-Change                         Max.-Flux-Residual
  Residual-Control   Outer-Iter.   Inner-Iter.     Column Row Layer    Maximum-Head-Change  Column Row Layer    Maximum-Flux-Residual          L2-NORM 
          0                 1           2             2    2     1       0.6336821868E-02       2    2    1         0.3307309230E+00      0.7684701539E+00
          0                 2           2             2    2     1      -0.6164014488E-03       2    2    1        -0.3307319029E-01      0.7602822035E-01
          0                 3           1             2    2     1       0.4197463926E-04       2    2    1         0.2315123403E-02      0.5244456114E-02

    ------------------------------------------------
       NWT REQUIRED            3 OUTER ITERATIONS 
       AND A TOTAL OF          5 INNER ITERATIONS.
    ------------------------------------------------

 NO OUTPUT CONTROL FOR STRESS PERIOD    4   TIME STEP   11
 
 SOLVING FOR HEAD 
                                                   Max.-Head-Change                         Max.-Flux-Residual
  Residual-Control   Outer-Iter.   Inner-Iter.     Column Row Layer    Maximum-Head-Change  Column Row Layer    Maximum-Flux-Residual          L2-NORM 
          0                 1           2             2    2     1       0.6299566920E-02       2    2    1         0.3287724739E+00      0.7470982445E+00
          0                 2           2             2    2     1      -0.6127775325E-03       2    2    1        -0.3287734370E-01      0.7398882127E-01
          0                 3           1             2    2     1       0.4172786406E-04       2    2    1         0.2301414133E-02      0.5112478476E-02

    ------------------------------------------------
       NWT REQUIRED            3 OUTER ITERATIONS 
       AND A TOTAL OF          5 INNER ITERATIONS.
    ------------------------------------------------

 NO OUTPUT CONTROL FOR STRESS PERIOD    4   TIME STEP   12
 
 SOLVING FOR HEAD 
                                                   Max.-Head-Change                         Max.-Flux-Residual
  Residual-Control   Outer-Iter.   Inner-Iter.     Column Row Layer    Maximum-Head-Change  Column Row Layer    Maximum-Flux-Residual          L2-NORM 
          0                 1           2             2    2     1       0.6262821188E-02       2    2    1         0.3268408495E+00      0.7280149039E+00
          0                 2           2             2    2     1      -0.6092031503E-03       2    2    1        -0.3268417963E-01      0.7216422007E-01
          0                 3           1             2    2     1       0.4148446217E-04       2    2    1         0.2287892670E-02      0.4992805565E-02

    ------------------------------------------------
       NWT REQUIRED            3 OUTER ITERATIONS 
       AND A TOTAL OF          5 INNER ITERATIONS.
    ------------------------------------------------

 NO OUTPUT CONTROL FOR STRESS PERIOD    4   TIME STEP   13
 
 SOLVING FOR HEAD 
                                                   Max.-Head-Change                         Max.-Flux-Residual
  Residual-Control   Outer-Iter.   Inner-Iter.     Column Row Layer    Maximum-Head-Change  Column Row Layer    Maximum-Flux-Residual          L2-NORM 
          0                 1           2             2    2     1       0.6226576539E-02       2    2    1         0.3249356272E+00      0.7109371275E+00
          0                 2           2             2    2     1      -0.6056775112E-03       2    2    1        -0.3249365586E-01      0.7053146659E-01
          0                 3           1             2    2     1       0.4124437962E-04       2    2    1         0.2274556029E-02      0.4885643951E-02

    ------------------------------------------------
       NWT REQUIRED            3 OUTER ITERATIONS 
       AND A TOTAL OF          5 INNER ITERATIONS.
    ------------------------------------------------

 NO OUTPUT CONTROL FOR STRESS PERIOD    4   TIME STEP   14
 
 SOLVING FOR HEAD 
                                                   Max.-Head-Change                         Max.-Flux-Residual
  Residual-Control   Outer-Iter.   Inner-Iter.     Column Row Layer    Maximum-Head-Change  Column Row Layer    Maximum-Flux-Residual          L2-NORM 
          0                 1           2             2    2     1       0.6190738554E-02       2    2    1         0.3230518444E+00      0.6956271146E+00
          0                 2           2             2    2     1      -0.6021914291E-03       2    2    1        -0.3230527603E-01      0.6906579316E-01
          0                 3           1             2    2     1       0.4100699065E-04       2    2    1         0.2261369447E-02      0.4788872166E-02

    ------------------------------------------------
       NWT REQUIRED            3 OUTER ITERATIONS 
       AND A TOTAL OF          5 INNER ITERATIONS.
    ------------------------------------------------

 NO OUTPUT CONTROL FOR STRESS PERIOD    4   TIME STEP   15
 
 SOLVING FOR HEAD 
                                                   Max.-Head-Change                         Max.-Flux-Residual
  Residual-Control   Outer-Iter.   Inner-Iter.     Column Row Layer    Maximum-Head-Change  Column Row Layer    Maximum-Flux-Residual          L2-NORM 
          0                 1           2             2    2     1       0.6155387396E-02       2    2    1         0.3211936876E+00      0.6818809484E+00
          0                 2           2             2    2     1      -0.5987527019E-03       2    2    1        -0.3211945882E-01      0.6775017097E-01
          0                 3           1             2    2     1       0.4077282612E-04       2    2    1         0.2248362238E-02      0.4701977128E-02

    ------------------------------------------------
       NWT REQUIRED            3 OUTER ITERATIONS 
       AND A TOTAL OF          5 INNER ITERATIONS.
    ------------------------------------------------

 NO OUTPUT CONTROL FOR STRESS PERIOD    4   TIME STEP   16
 
 SOLVING FOR HEAD 
                                                   Max.-Head-Change                         Max.-Flux-Residual
  Residual-Control   Outer-Iter.   Inner-Iter.     Column Row Layer    Maximum-Head-Change  Column Row Layer    Maximum-Flux-Residual          L2-NORM 
          0                 1           2             2    2     1       0.6120514978E-02       2    2    1         0.3193607723E+00      0.6695131136E+00
          0                 2           2             2    2     1      -0.5953605445E-03       2    2    1        -0.3193616583E-01      0.6656507718E-01
          0                 3           1             2    2     1       0.4054183300E-04       2    2    1         0.2235531738E-02      0.4624002761E-02

    ------------------------------------------------
       NWT REQUIRED            3 OUTER ITERATIONS 
       AND A TOTAL OF          5 INNER ITERATIONS.
    ------------------------------------------------

 NO OUTPUT CONTROL FOR STRESS PERIOD    4   TIME STEP   17
 
 SOLVING FOR HEAD 
                                                   Max.-Head-Change                         Max.-Flux-Residual
  Residual-Control   Outer-Iter.   Inner-Iter.     Column Row Layer    Maximum-Head-Change  Column Row Layer    Maximum-Flux-Residual          L2-NORM 
          0                 1           2             2    2     1       0.6086114131E-02       2    2    1         0.3175526791E+00      0.6583460091E+00
          0                 2           2             2    2     1      -0.5920142585E-03       2    2    1        -0.3175535508E-01      0.6549363469E-01
          0                 3           1             2    2     1       0.4031396327E-04       2    2    1         0.2222874988E-02      0.4553167021E-02

    ------------------------------------------------
       NWT REQUIRED            3 OUTER ITERATIONS 
       AND A TOTAL OF          5 INNER ITERATIONS.
    ------------------------------------------------

 NO OUTPUT CONTROL FOR STRESS PERIOD    4   TIME STEP   18
 
 SOLVING FOR HEAD 
                                                   Max.-Head-Change                         Max.-Flux-Residual
  Residual-Control   Outer-Iter.   Inner-Iter.     Column Row Layer    Maximum-Head-Change  Column Row Layer    Maximum-Flux-Residual          L2-NORM 
          0                 1           2             2    2     1       0.6052090883E-02       2    2    1         0.3157644944E+00      0.6482385087E+00
          0                 2           2             2    2     1      -0.5887047028E-03       2    2    1        -0.3157653520E-01      0.6452328952E-01
          0                 3           1             2    2     1       0.4008859493E-04       2    2    1         0.2210357589E-02      0.4489075408E-02

    ------------------------------------------------
       NWT REQUIRED            3 OUTER ITERATIONS 
       AND A TOTAL OF          5 INNER ITERATIONS.
    ------------------------------------------------

 NO OUTPUT CONTROL FOR STRESS PERIOD    4   TIME STEP   19
 
 SOLVING FOR HEAD 
                                                   Max.-Head-Change                         Max.-Flux-Residual
  Residual-Control   Outer-Iter.   Inner-Iter.     Column Row Layer    Maximum-Head-Change  Column Row Layer    Maximum-Flux-Residual          L2-NORM 
          0                 1           2             2    2     1       0.6018525482E-02       2    2    1         0.3140004295E+00      0.6390656029E+00
          0                 2           2             2    2     1      -0.5854396839E-03       2    2    1        -0.3140012731E-01      0.6364062448E-01
          0                 3           1             2    2     1       0.3986625980E-04       2    2    1         0.2198009075E-02      0.4430653063E-02

    ------------------------------------------------
       NWT REQUIRED            3 OUTER ITERATIONS 
       AND A TOTAL OF          5 INNER ITERATIONS.
    ------------------------------------------------

 NO OUTPUT CONTROL FOR STRESS PERIOD    4   TIME STEP   20
 
 SOLVING FOR HEAD 
                                                   Max.-Head-Change                         Max.-Flux-Residual
  Residual-Control   Outer-Iter.   Inner-Iter.     Column Row Layer    Maximum-Head-Change  Column Row Layer    Maximum-Flux-Residual          L2-NORM 
          0                 1           2             2    2     1       0.5985410748E-02       2    2    1         0.3122601035E+00      0.6307118737E+00
          0                 2           2             2    2     1      -0.5822185028E-03       2    2    1        -0.3122609337E-01      0.6283607002E-01
          0                 3           1             2    2     1       0.3964690983E-04       2    2    1         0.2185826703E-02      0.4377158048E-02

    ------------------------------------------------
       NWT REQUIRED            3 OUTER ITERATIONS 
       AND A TOTAL OF          5 INNER ITERATIONS.
    ------------------------------------------------

 NO OUTPUT CONTROL FOR STRESS PERIOD    4   TIME STEP   21
 
 SOLVING FOR HEAD 
                                                   Max.-Head-Change                         Max.-Flux-Residual
  Residual-Control   Outer-Iter.   Inner-Iter.     Column Row Layer    Maximum-Head-Change  Column Row Layer    Maximum-Flux-Residual          L2-NORM 
          0                 1           2             2    2     1       0.5952739973E-02       2    2    1         0.3105431442E+00      0.6230912680E+00
          0                 2           2             2    2     1      -0.5790405076E-03       2    2    1        -0.3105439614E-01      0.6210132591E-01
          0                 3           1             2    2     1       0.3943050005E-04       2    2    1         0.2173807899E-02      0.4328364469E-02

    ------------------------------------------------
       NWT REQUIRED            3 OUTER ITERATIONS 
       AND A TOTAL OF          5 INNER ITERATIONS.
    ------------------------------------------------

 NO OUTPUT CONTROL FOR STRESS PERIOD    4   TIME STEP   22
 
 SOLVING FOR HEAD 
                                                   Max.-Head-Change                         Max.-Flux-Residual
  Residual-Control   Outer-Iter.   Inner-Iter.     Column Row Layer    Maximum-Head-Change  Column Row Layer    Maximum-Flux-Residual          L2-NORM 
          0                 1           2             2    2     1       0.5920419299E-02       2    2    1         0.3088446607E+00      0.6160982454E+00
          0                 2           2             2    2     1      -0.5758965674E-03       2    2    1        -0.3088454649E-01      0.6142556045E-01
          0                 3           1             2    2     1       0.3921640919E-04       2    2    1         0.2161918419E-02      0.4282577254E-02

    ------------------------------------------------
       NWT REQUIRED            3 OUTER ITERATIONS 
       AND A TOTAL OF          5 INNER ITERATIONS.
    ------------------------------------------------

 NO OUTPUT CONTROL FOR STRESS PERIOD    4   TIME STEP   23
 
 SOLVING FOR HEAD 
                                                   Max.-Head-Change                         Max.-Flux-Residual
  Residual-Control   Outer-Iter.   Inner-Iter.     Column Row Layer    Maximum-Head-Change  Column Row Layer    Maximum-Flux-Residual          L2-NORM 
          0                 1           2             2    2     1       0.5888529810E-02       2    2    1         0.3071688723E+00      0.6096754791E+00
          0                 2           2             2    2     1      -0.5727945709E-03       2    2    1        -0.3071696639E-01      0.6080414603E-01
          0                 3           1             2    2     1       0.3900517522E-04       2    2    1         0.2150187827E-02      0.4241014587E-02

    ------------------------------------------------
       NWT REQUIRED            3 OUTER ITERATIONS 
       AND A TOTAL OF          5 INNER ITERATIONS.
    ------------------------------------------------

 NO OUTPUT CONTROL FOR STRESS PERIOD    4   TIME STEP   24
 
 SOLVING FOR HEAD 
                                                   Max.-Head-Change                         Max.-Flux-Residual
  Residual-Control   Outer-Iter.   Inner-Iter.     Column Row Layer    Maximum-Head-Change  Column Row Layer    Maximum-Flux-Residual          L2-NORM 
          0                 1           2             2    2     1       0.5857064406E-02       2    2    1         0.3055154403E+00      0.6037480306E+00
          0                 2           2             2    2     1      -0.5697338265E-03       2    2    1        -0.3055162196E-01      0.6022991270E-01
          0                 3           1             2    2     1       0.3879675032E-04       2    2    1         0.2138613727E-02      0.4202617003E-02

    ------------------------------------------------
       NWT REQUIRED            3 OUTER ITERATIONS 
       AND A TOTAL OF          5 INNER ITERATIONS.
    ------------------------------------------------

 NO OUTPUT CONTROL FOR STRESS PERIOD    4   TIME STEP   25
 
 SOLVING FOR HEAD 
                                                   Max.-Head-Change                         Max.-Flux-Residual
  Residual-Control   Outer-Iter.   Inner-Iter.     Column Row Layer    Maximum-Head-Change  Column Row Layer    Maximum-Flux-Residual          L2-NORM 
          0                 1           2             2    2     1       0.5826016811E-02       2    2    1         0.3038839966E+00      0.5982711145E+00
          0                 2           2             2    2     1      -0.5667137235E-03       2    2    1        -0.3038847637E-01      0.5969851488E-01
          0                 3           1             2    2     1       0.3859109237E-04       2    2    1         0.2127193536E-02      0.4167209451E-02

    ------------------------------------------------
       NWT REQUIRED            3 OUTER ITERATIONS 
       AND A TOTAL OF          5 INNER ITERATIONS.
    ------------------------------------------------

 NO OUTPUT CONTROL FOR STRESS PERIOD    4   TIME STEP   26
 
 SOLVING FOR HEAD 
                                                   Max.-Head-Change                         Max.-Flux-Residual
  Residual-Control   Outer-Iter.   Inner-Iter.     Column Row Layer    Maximum-Head-Change  Column Row Layer    Maximum-Flux-Residual          L2-NORM 
          0                 1           2             2    2     1       0.5795293960E-02       2    2    1         0.3022696725E+00      0.5931740800E+00
          0                 2           2             2    2     1      -0.5637252105E-03       2    2    1        -0.3022704280E-01      0.5920296943E-01
          0                 3           1             2    2     1       0.3838758578E-04       2    2    1         0.2115893184E-02      0.4133916810E-02

    ------------------------------------------------
       NWT REQUIRED            3 OUTER ITERATIONS 
       AND A TOTAL OF          5 INNER ITERATIONS.
    ------------------------------------------------

 NO OUTPUT CONTROL FOR STRESS PERIOD    4   TIME STEP   27
 
 SOLVING FOR HEAD 
                                                   Max.-Head-Change                         Max.-Flux-Residual
  Residual-Control   Outer-Iter.   Inner-Iter.     Column Row Layer    Maximum-Head-Change  Column Row Layer    Maximum-Flux-Residual          L2-NORM 
          0                 1           2             2    2     1       0.5764977044E-02       2    2    1         0.3006767291E+00      0.5884281405E+00
          0                 2           2             2    2     1      -0.5607761839E-03       2    2    1        -0.3006774729E-01      0.5874119944E-01
          0                 3           1             2    2     1       0.3818676851E-04       2    2    1         0.2104742531E-02      0.4102706027E-02

    ------------------------------------------------
       NWT REQUIRED            3 OUTER ITERATIONS 
       AND A TOTAL OF          5 INNER ITERATIONS.
    ------------------------------------------------

 NO OUTPUT CONTROL FOR STRESS PERIOD    4   TIME STEP   28
 
 SOLVING FOR HEAD 
                                                   Max.-Head-Change                         Max.-Flux-Residual
  Residual-Control   Outer-Iter.   Inner-Iter.     Column Row Layer    Maximum-Head-Change  Column Row Layer    Maximum-Flux-Residual          L2-NORM 
          0                 1           2             2    2     1       0.5735060105E-02       2    2    1         0.2991048331E+00      0.5839925268E+00
          0                 2           2             2    2     1      -0.5578660642E-03       2    2    1        -0.2991055658E-01      0.5830814900E-01
          0                 3           1             2    2     1       0.3798859962E-04       2    2    1         0.2093739157E-02      0.4073305524E-02

    ------------------------------------------------
       NWT REQUIRED            3 OUTER ITERATIONS 
       AND A TOTAL OF          5 INNER ITERATIONS.
    ------------------------------------------------

 NO OUTPUT CONTROL FOR STRESS PERIOD    4   TIME STEP   29
 
 SOLVING FOR HEAD 
                                                   Max.-Head-Change                         Max.-Flux-Residual
  Residual-Control   Outer-Iter.   Inner-Iter.     Column Row Layer    Maximum-Head-Change  Column Row Layer    Maximum-Flux-Residual          L2-NORM 
          0                 1           2             2    2     1       0.4577995966E-02       2    2    1         0.2386111534E+00      0.5557742994E+00
          0                 2           2             2    2     1      -0.4453148114E-03       2    2    1        -0.2386115789E-01      0.5516760178E-01
          0                 3           1             2    2     1       0.3032428173E-04       2    2    1         0.1670281384E-02      0.3824227391E-02

    ------------------------------------------------
       NWT REQUIRED            3 OUTER ITERATIONS 
       AND A TOTAL OF          5 INNER ITERATIONS.
    ------------------------------------------------

 NO OUTPUT CONTROL FOR STRESS PERIOD    4   TIME STEP   30



 STREAM LISTING     PERIOD      4   STEP       30

 LAYER ROW COL. STREAM  RCH.  FLOW INTO     FLOW TO   FLOW OUT OF   OVRLND.     DIRECT     STREAM       STREAM     STREAM     STREAM   STREAMBED  STREAMBED
                SEG.NO.  NO.  STRM. RCH.    AQUIFER    STRM. RCH.    RUNOFF     PRECIP       ET          HEAD       DEPTH      WIDTH   CONDCTNC.   GRADIENT

   1    1    1     1     1    4.6685E+01  3.2585E-01   4.6359E+01  0.000E+00  0.000E+00  0.000E+00  1.09443E+03  1.378E+00  1.654E+01  7.443E-02  1.459E+00
   1    2    2     1     2    4.6359E+01  5.0484E-01   4.5855E+01  0.000E+00  0.000E+00  0.000E+00  1.08943E+03  1.375E+00  1.648E+01  1.154E-01  1.458E+00
   1    3    3     1     3    4.5855E+01  4.3074E-01   4.5424E+01  0.000E+00  0.000E+00  0.000E+00  1.08379E+03  1.372E+00  1.642E+01  9.852E-02  1.457E+00
   1    3    4     1     4    4.5424E+01  3.9680E-01   4.5027E+01  0.000E+00  0.000E+00  0.000E+00  1.07878E+03  1.369E+00  1.636E+01  9.082E-02  1.456E+00
   1    4    5     2     1    4.3027E+01  3.6413E-01   4.2663E+01  0.000E+00  0.000E+00  0.000E+00  1.07360E+03  1.668E+00  1.200E+01  7.800E-02  1.556E+00
   1    5    6     2     2    4.2663E+01  2.7965E-01   4.2383E+01  0.000E+00  0.000E+00  0.000E+00  1.06817E+03  1.661E+00  1.200E+01  6.000E-02  1.554E+00
   1    6    6     2     3    4.2383E+01  2.7926E-01   4.2104E+01  0.000E+00  0.000E+00  0.000E+00  1.06345E+03  1.654E+00  1.200E+01  6.000E-02  1.551E+00
   1    7    6     2     4    4.2104E+01  2.7886E-01   4.1825E+01  0.000E+00  0.000E+00  0.000E+00  1.05872E+03  1.648E+00  1.200E+01  6.000E-02  1.549E+00
   1    8    6     2     5    4.1825E+01  2.7847E-01   4.1547E+01  0.000E+00  0.000E+00  0.000E+00  1.05400E+03  1.641E+00  1.200E+01  6.000E-02  1.547E+00
   1    3    5     3     1    2.0000E+00  2.8252E-01   1.7175E+00  0.000E+00  0.000E+00  0.000E+00  1.07555E+03  1.909E+00  9.636E+00  7.227E-02  1.955E+00
   1    3    6     3     2    1.7175E+00  2.4905E-01   1.4684E+00  0.000E+00  0.000E+00  0.000E+00  1.07264E+03  1.727E+00  8.909E+00  6.682E-02  1.864E+00
   1    3    7     3     3    1.4684E+00  1.9718E-01   1.2712E+00  0.000E+00  0.000E+00  0.000E+00  1.06987E+03  1.555E+00  8.218E+00  5.547E-02  1.777E+00
   1    4    8     3     4    1.2712E+00  2.2567E-01   1.0456E+00  0.000E+00  0.000E+00  0.000E+00  1.06682E+03  1.364E+00  7.455E+00  6.709E-02  1.682E+00
   1    5    8     3     5    1.0456E+00  1.5790E-01   8.8768E-01  0.000E+00  0.000E+00  0.000E+00  1.06362E+03  1.164E+00  6.655E+00  4.991E-02  1.582E+00
   1    6    8     3     6    8.8768E-01  5.5980E-02   8.3170E-01  0.000E+00  0.000E+00  0.000E+00  1.06158E+03  1.036E+00  6.145E+00  1.844E-02  1.518E+00
   1    5   10     4     1    1.0000E+01  9.0919E-02   9.9091E+00  0.000E+00  0.000E+00  0.000E+00  1.07836E+03  6.368E-01  1.000E+01  2.500E-02  1.212E+00
   1    5    9     4     2    9.9091E+00  1.8158E-01   9.7275E+00  0.000E+00  0.000E+00  0.000E+00  1.07154E+03  6.315E-01  1.000E+01  5.000E-02  1.211E+00
   1    6    8     4     3    9.7275E+00  1.2689E-01   9.6006E+00  0.000E+00  0.000E+00  0.000E+00  1.06381E+03  6.256E-01  1.000E+01  3.500E-02  1.209E+00
   1    6    8     5     1    1.0432E+01  2.2686E-01   1.0205E+01  0.000E+00  0.000E+00  0.000E+00  1.05868E+03  6.790E-01  1.542E+01  6.166E-02  1.226E+00
   1    7    7     5     2    1.0205E+01  2.7894E-01   9.9265E+00  0.000E+00  0.000E+00  0.000E+00  1.05417E+03  6.732E-01  1.519E+01  7.594E-02  1.224E+00
   1    8    7     5     3    9.9265E+00  1.9221E-01   9.7343E+00  0.000E+00  0.000E+00  0.000E+00  1.04992E+03  6.676E-01  1.497E+01  5.241E-02  1.223E+00
   1    8    6     5     4    9.7343E+00  1.3577E-01   9.5985E+00  0.000E+00  0.000E+00  0.000E+00  1.04691E+03  6.637E-01  1.482E+01  3.706E-02  1.221E+00
   1    9    6     6     1    5.1145E+01  2.9237E-01   5.0853E+01  0.000E+00  0.000E+00  0.000E+00  1.04460E+03  1.873E+00  1.200E+01  6.000E-02  1.624E+00
   1   10    7     6     2    5.0853E+01  2.9199E-01   5.0561E+01  0.000E+00  0.000E+00  0.000E+00  1.04005E+03  1.866E+00  1.200E+01  6.000E-02  1.622E+00
   1   11    7     6     3    5.0561E+01  2.9160E-01   5.0269E+01  0.000E+00  0.000E+00  0.000E+00  1.03550E+03  1.860E+00  1.200E+01  6.000E-02  1.620E+00
   1   12    7     6     4    5.0269E+01  2.9121E-01   4.9978E+01  0.000E+00  0.000E+00  0.000E+00  1.03094E+03  1.854E+00  1.200E+01  6.000E-02  1.618E+00
   1   13    7     6     5    4.9978E+01  1.5046E-02   4.9963E+01  0.000E+00  0.000E+00  0.000E+00  1.02776E+03  1.850E+00  1.200E+01  2.400E-02  2.090E-01
   1   14    9     7     1    1.5000E+02  1.3355E+00   1.4866E+02  0.000E+00  0.000E+00  0.000E+00  1.03987E+03  2.288E+00  5.529E+01  5.593E-01  7.959E-01
   1   13    8     7     2    1.4866E+02  1.8270E+00   1.4684E+02  0.000E+00  0.000E+00  0.000E+00  1.03478E+03  2.279E+00  5.526E+01  6.148E-01  9.906E-01
   1   13    7     7     3    1.4684E+02  1.4284E+00   1.4541E+02  0.000E+00  0.000E+00  0.000E+00  1.02969E+03  2.271E+00  5.522E+01  5.585E-01  8.526E-01
   1   13    6     8     1    1.9537E+02  9.7131E-01   1.9440E+02  0.000E+00  0.000E+00  0.000E+00  1.02498E+03  3.107E+00  4.506E+01  4.591E-01  7.052E-01
   1   13    5     8     2    1.9440E+02  1.7795E-01   1.9422E+02  0.000E+00  0.000E+00  0.000E+00  1.01873E+03  3.104E+00  4.501E+01  4.586E-01  1.293E-01
   1   13    4     8     3    1.9422E+02 -2.6472E+00   1.9687E+02  0.000E+00  0.000E+00  0.000E+00  1.01249E+03  3.111E+00  4.511E+01  4.597E+00 -1.919E-01
   1   13    3     8     4    1.9687E+02 -3.8119E+00   2.0068E+02  0.000E+00  0.000E+00  0.000E+00  1.00626E+03  3.131E+00  4.539E+01  4.626E+00 -2.747E-01
   1   13    2     8     5    2.0068E+02 -2.7019E+00   2.0338E+02  0.000E+00  0.000E+00  0.000E+00  1.00002E+03  3.150E+00  4.567E+01  4.654E+00 -1.935E-01
   1   13    1     8     6    2.0338E+02 -2.0096E+00   2.0539E+02  0.000E+00  0.000E+00  0.000E+00  9.95038E+02  3.163E+00  4.587E+01  2.805E+00 -2.388E-01
   1    8    6     9     1    0.0000E+00  0.0000E+00   0.0000E+00  0.000E+00  0.000E+00  0.000E+00  1.07875E+03  0.000E+00  4.000E+00  0.000E+00  1.000E+00
   1    8    5     9     2    0.0000E+00  0.0000E+00   0.0000E+00  0.000E+00  0.000E+00  0.000E+00  1.07825E+03  0.000E+00  4.000E+00  0.000E+00  1.000E+00





UNSATURATED ZONE PACKAGE VOLUMETRIC BUDGET FOR  TIME STEP    30 STRESS PERIOD    4
  ------------------------------------------------------------------------------



     CUMULATIVE VOLUMES      L**3       RATES FOR THIS TIME STEP      L**3/T
     ------------------                 ------------------------

           IN:                                      IN:
           ---                                      ---
        INFILTRATION =    34848397.6743          INFILTRATION =           4.4075

          OUT:                                     OUT:
          ----                                     ----
              UZF ET =     5720249.5208                UZF ET =           0.7250
        UZF RECHARGE =       73224.0000          UZF RECHARGE =       0.0000E+00

            IN - OUT =    29054924.1536              IN - OUT =           3.6825

          STORAGE:                                 STORAGE:
          --------                                 --------
      STORAGE CHANGE =    29054923.9743        STORAGE CHANGE =           3.6825

 PERCENT DISCREPANCY IS DIFFERENCE BETWEEN IN-OUT MINUS CHANGE IN STORAGE
 DIVIDED BY THE AVERAGE OF IN AND OUT TIMES 100

 PERCENT DISCREPANCY =           0.00     PERCENT DISCREPANCY =           0.00






1
  VOLUMETRIC BUDGET FOR ENTIRE MODEL AT END OF TIME STEP   30, STRESS PERIOD   4
  ------------------------------------------------------------------------------

     CUMULATIVE VOLUMES      L**3       RATES FOR THIS TIME STEP      L**3/T
     ------------------                 ------------------------

           IN:                                      IN:
           ---                                      ---
               AG WELLS  =           0.0000                 AG WELLS  =           0.0000
        DIVERSION SEGMEN =           0.0000          DIVERSION SEGMEN =           0.0000
    TS         GW IRRIGA =           0.0000      TS         GW IRRIGA =           0.0000
    TION         SW IRRI =           0.0000      TION         SW IRRI =           0.0000
    GATION      SYSTEM L =           0.0000      GATION      SYSTEM L =           0.0000
    OSSES GW      SYSTEM =           0.0000      OSSES GW      SYSTEM =           0.0000

                TOTAL IN =           0.0000                  TOTAL IN =           0.0000

          OUT:                                     OUT:
          ----                                     ----
               AG WELLS  =           0.0000                 AG WELLS  =           0.0000
        DIVERSION SEGMEN =           0.0000          DIVERSION SEGMEN =           0.0000
    TS         GW IRRIGA =           0.0000      TS         GW IRRIGA =           0.0000
    TION         SW IRRI =           0.0000      TION         SW IRRI =           0.0000
    GATION      SYSTEM L =           0.0000      GATION      SYSTEM L =           0.0000
    OSSES GW      SYSTEM =           0.0000      OSSES GW      SYSTEM =           0.0000

               TOTAL OUT =           0.0000                 TOTAL OUT =           0.0000

                IN - OUT =           0.0000                  IN - OUT =           0.0000

     PERCENT DISCREPANCY =           0.00         PERCENT DISCREPANCY =           0.00



1
  VOLUMETRIC BUDGET FOR ENTIRE MODEL AT END OF TIME STEP   30, STRESS PERIOD   4
  ------------------------------------------------------------------------------

     CUMULATIVE VOLUMES      L**3       RATES FOR THIS TIME STEP      L**3/T
     ------------------                 ------------------------

           IN:                                      IN:
           ---                                      ---
             STORAGE     =     4352765.5000               STORAGE     =           0.9334
       CONSTANT HEAD     =           0.0000         CONSTANT HEAD     =           0.0000
     HEAD DEP BOUNDS     =     2278729.0000       HEAD DEP BOUNDS     =           0.2857
      STREAM LEAKAGE     =    95891928.0000        STREAM LEAKAGE     =          12.4623
        UZF RECHARGE     =       73223.9531          UZF RECHARGE     =           0.0000
               GW ET     =           0.0000                 GW ET     =           0.0000
     SURFACE LEAKAGE     =           0.0000       SURFACE LEAKAGE     =           0.0000
           AG WELLS      =           0.0000             AG WELLS      =           0.0000

                TOTAL IN =   102596648.0000                  TOTAL IN =          13.6815

          OUT:                                     OUT:
          ----                                     ----
             STORAGE     =    18029952.0000               STORAGE     =           2.2167
       CONSTANT HEAD     =           0.0000         CONSTANT HEAD     =           0.0000
     HEAD DEP BOUNDS     =     2316606.7500       HEAD DEP BOUNDS     =           0.2947
      STREAM LEAKAGE     =    82253976.0000        STREAM LEAKAGE     =          11.1705
        UZF RECHARGE     =           0.0000          UZF RECHARGE     =           0.0000
               GW ET     =       9.2444E-07                 GW ET     =       3.7438E-13
     SURFACE LEAKAGE     =           0.0000       SURFACE LEAKAGE     =           0.0000
           AG WELLS      =           0.0000             AG WELLS      =           0.0000

               TOTAL OUT =   102600536.0000                 TOTAL OUT =          13.6819

                IN - OUT =       -3888.0000                  IN - OUT =      -3.6430E-04

     PERCENT DISCREPANCY =          -0.00         PERCENT DISCREPANCY =          -0.00






         TIME SUMMARY AT END OF TIME STEP   30 IN STRESS PERIOD    4
                    SECONDS     MINUTES      HOURS       DAYS        YEARS
                    -----------------------------------------------------------
   TIME STEP LENGTH  87667.      1461.1      24.352      1.0147     2.77799E-03
 STRESS PERIOD TIME 2.63000E+06  43833.      730.56      30.440     8.33397E-02
         TOTAL TIME 7.97639E+06 1.32940E+05  2215.7      92.319     0.25276    
1
1
                            STRESS PERIOD NO.    5, LENGTH =   2630000.    
                            -----------------------------------------------

                              NUMBER OF TIME STEPS =    30

                               MULTIPLIER FOR DELT =     1.000

                            INITIAL TIME STEP SIZE =   87666.66    

 REUSING NON-PARAMETER GHB CELLS FROM LAST STRESS PERIOD

      2 GHB CELLS

 REUSING STREAM SEGMENT DATA FROM LAST STRESS PERIOD



            AREAL INFILTRATION RATE
 READING ON UNIT   19 WITH FORMAT: (10F4.0)            

            1           2           3           4           5           6           7           8           9          10
 ........................................................................................................................
   1   1.2000E-09   0.000       0.000       0.000       0.000       0.000       0.000       0.000       0.000       0.000    
   2   2.1000E-09  2.0000E-09  8.0000E-10  8.5000E-09   0.000       0.000       0.000       0.000       0.000       0.000    
   3   5.0000E-10  1.1000E-09  8.8000E-09  5.5000E-09   0.000       0.000       0.000       0.000       0.000       0.000    
   4   8.5000E-09  1.1000E-09  1.1000E-09  1.1000E-09  2.0000E-09   0.000       0.000       0.000       0.000       0.000    
   5   8.5000E-09  1.1000E-09  1.1000E-09  1.1000E-09  1.1000E-09   0.000       0.000       0.000       0.000       0.000    
   6   8.5000E-09  5.2000E-09  2.1000E-09  1.1000E-09  1.5000E-09   0.000       0.000       0.000       0.000       0.000    
   7   8.5000E-09  5.2000E-09  2.1000E-09  1.2000E-09  2.0000E-09   0.000       0.000       0.000       0.000       0.000    
   8   5.0000E-10  5.2000E-09  2.1000E-09  1.2000E-09  5.0000E-09   0.000       0.000       0.000       0.000       0.000    
   9   5.0000E-10  5.2000E-09  2.1000E-09  1.2000E-09  5.0000E-09   0.000       0.000       0.000       0.000       0.000    
  10   5.0000E-10  5.2000E-09  2.1000E-09  1.2000E-09  5.8000E-09   0.000       0.000       0.000       0.000       0.000    
  11   1.0000E-10  1.1000E-09  1.1000E-09  1.2000E-09  5.0000E-09   0.000       0.000       0.000       0.000       0.000    
  12   1.1000E-09  1.1000E-09  1.1000E-09  1.1000E-09  2.0000E-09   0.000       0.000       0.000       0.000       0.000    
  13   1.1000E-09  2.2000E-09  2.2000E-09  2.1000E-09  1.0000E-09   0.000       0.000       0.000       0.000       0.000    
  14   2.0000E-10  5.5000E-09  5.5000E-09  5.2000E-09  1.0000E-09   0.000       0.000       0.000       0.000       0.000    
  15    0.000      8.8000E-09  8.8000E-09   0.000       0.000       0.000       0.000       0.000       0.000       0.000    

                  ET RATE =  2.500000E-08

 USING ET EXTINCTION DEPTH FROM PREVIOUS STRESS PERIOD. CURRENT PERIOD IS:       5

 USING EXTINCTION WATER CONTENT FROM PREVIOUS STRESS PERIOD. CURRENT PERIOD IS:       5

 USING AIR ENTRY PRESSURE FROM PREVIOUS STRESS PERIOD. CURRENT PERIOD IS:       5

 USING ROOT PRESSURE HEAD FROM PREVIOUS STRESS PERIOD. CURRENT PERIOD IS:       5

 USING ROOT ACTIVITY FROM PREVIOUS STRESS PERIOD. CURRENT PERIOD IS:       5

 PROCESSING AG STRESS PERIOD DATA

 READING AG STRESS PERIOD DATA

 READING IRRIGATION SEGMENT

 READING IRRIGATION WELL

 READING SUPPLEMENTAL WELL

 END PROCESSING AG STRESS PERIOD DATA OPTIONS
 
 SOLVING FOR HEAD 
                                                   Max.-Head-Change                         Max.-Flux-Residual
  Residual-Control   Outer-Iter.   Inner-Iter.     Column Row Layer    Maximum-Head-Change  Column Row Layer    Maximum-Flux-Residual          L2-NORM 
          0                 1           2             4   13     1      -0.1222714911E-01       4   13    1        -0.7024657857E+00      0.1224192331E+01
          0                 2           2             4   13     1       0.1179399552E-02       4   13    1         0.6966745343E-01      0.1194285498E+00
          0                 3           1             4   13     1      -0.7937506521E-04       4   13    1        -0.4820750932E-02      0.8078693313E-02

    ------------------------------------------------
       NWT REQUIRED            3 OUTER ITERATIONS 
       AND A TOTAL OF          5 INNER ITERATIONS.
    ------------------------------------------------

 NO OUTPUT CONTROL FOR STRESS PERIOD    5   TIME STEP    1
 
 SOLVING FOR HEAD 
                                                   Max.-Head-Change                         Max.-Flux-Residual
  Residual-Control   Outer-Iter.   Inner-Iter.     Column Row Layer    Maximum-Head-Change  Column Row Layer    Maximum-Flux-Residual          L2-NORM 
          0                 1           2             4   13     1      -0.1106475518E-01       4   13    1        -0.6354242215E+00      0.1130050465E+01
          0                 2           2             4   13     1       0.1067185578E-02       4   13    1         0.6301302619E-01      0.1102434607E+00
          0                 3           1             4   13     1      -0.7182422754E-04       4   13    1        -0.4360353365E-02      0.7457943468E-02

    ------------------------------------------------
       NWT REQUIRED            3 OUTER ITERATIONS 
       AND A TOTAL OF          5 INNER ITERATIONS.
    ------------------------------------------------

 OUTPUT CONTROL FOR STRESS PERIOD    5   TIME STEP    2
    PRINT BUDGET
    SAVE BUDGET
 UBDSV1 SAVING "         STORAGE" ON UNIT 102 AT TIME STEP  2, STRESS PERIOD   5
 UBDSV2 SAVING "   CONSTANT HEAD" ON UNIT 102 AT TIME STEP  2, STRESS PERIOD   5
 UBDSV1 SAVING "FLOW RIGHT FACE " ON UNIT 102 AT TIME STEP  2, STRESS PERIOD   5
 UBDSV1 SAVING "FLOW FRONT FACE " ON UNIT 102 AT TIME STEP  2, STRESS PERIOD   5

  HEAD DEP BOUNDS   PERIOD    5   STEP     2
 BOUNDARY      1   LAYER   1   ROW    13   COL     1   RATE   -0.294284    
 BOUNDARY      2   LAYER   1   ROW    14   COL     9   RATE    0.285737    



 STREAM LISTING     PERIOD      5   STEP        2

 LAYER ROW COL. STREAM  RCH.  FLOW INTO     FLOW TO   FLOW OUT OF   OVRLND.     DIRECT     STREAM       STREAM     STREAM     STREAM   STREAMBED  STREAMBED
                SEG.NO.  NO.  STRM. RCH.    AQUIFER    STRM. RCH.    RUNOFF     PRECIP       ET          HEAD       DEPTH      WIDTH   CONDCTNC.   GRADIENT

   1    1    1     1     1    2.1000E+01  2.2591E-01   2.0774E+01  0.000E+00  0.000E+00  0.000E+00  1.09416E+03  1.115E+00  1.220E+01  5.490E-02  1.372E+00
   1    2    2     1     2    2.0774E+01  3.4916E-01   2.0425E+01  0.000E+00  0.000E+00  0.000E+00  1.08917E+03  1.110E+00  1.214E+01  8.495E-02  1.370E+00
   1    3    3     1     3    2.0425E+01  2.9709E-01   2.0128E+01  0.000E+00  0.000E+00  0.000E+00  1.08352E+03  1.105E+00  1.206E+01  7.238E-02  1.368E+00
   1    3    4     1     4    2.0128E+01  2.7299E-01   1.9855E+01  0.000E+00  0.000E+00  0.000E+00  1.07851E+03  1.100E+00  1.200E+01  6.659E-02  1.367E+00
   1    4    5     2     1    1.7855E+01  3.1056E-01   1.7544E+01  0.000E+00  0.000E+00  0.000E+00  1.07292E+03  9.816E-01  1.200E+01  7.800E-02  1.327E+00
   1    5    6     2     2    1.7544E+01  2.3834E-01   1.7306E+01  0.000E+00  0.000E+00  0.000E+00  1.06748E+03  9.724E-01  1.200E+01  6.000E-02  1.324E+00
   1    6    6     2     3    1.7306E+01  2.3786E-01   1.7068E+01  0.000E+00  0.000E+00  0.000E+00  1.06276E+03  9.644E-01  1.200E+01  6.000E-02  1.321E+00
   1    7    6     2     4    1.7068E+01  2.3738E-01   1.6831E+01  0.000E+00  0.000E+00  0.000E+00  1.05803E+03  9.564E-01  1.200E+01  6.000E-02  1.319E+00
   1    8    6     2     5    1.6831E+01  2.3690E-01   1.6594E+01  0.000E+00  0.000E+00  0.000E+00  1.05331E+03  9.483E-01  1.200E+01  6.000E-02  1.316E+00
   1    3    5     3     1    2.0000E+00  2.8252E-01   1.7175E+00  0.000E+00  0.000E+00  0.000E+00  1.07555E+03  1.909E+00  9.636E+00  7.227E-02  1.955E+00
   1    3    6     3     2    1.7175E+00  2.4905E-01   1.4684E+00  0.000E+00  0.000E+00  0.000E+00  1.07264E+03  1.727E+00  8.909E+00  6.682E-02  1.864E+00
   1    3    7     3     3    1.4684E+00  1.9718E-01   1.2712E+00  0.000E+00  0.000E+00  0.000E+00  1.06987E+03  1.555E+00  8.218E+00  5.547E-02  1.777E+00
   1    4    8     3     4    1.2712E+00  2.2567E-01   1.0456E+00  0.000E+00  0.000E+00  0.000E+00  1.06682E+03  1.364E+00  7.455E+00  6.709E-02  1.682E+00
   1    5    8     3     5    1.0456E+00  1.5790E-01   8.8768E-01  0.000E+00  0.000E+00  0.000E+00  1.06362E+03  1.164E+00  6.655E+00  4.991E-02  1.582E+00
   1    6    8     3     6    8.8768E-01  5.5980E-02   8.3170E-01  0.000E+00  0.000E+00  0.000E+00  1.06158E+03  1.036E+00  6.145E+00  1.844E-02  1.518E+00
   1    5   10     4     1    1.0000E+01  9.0919E-02   9.9091E+00  0.000E+00  0.000E+00  0.000E+00  1.07836E+03  6.368E-01  1.000E+01  2.500E-02  1.212E+00
   1    5    9     4     2    9.9091E+00  1.8158E-01   9.7275E+00  0.000E+00  0.000E+00  0.000E+00  1.07154E+03  6.315E-01  1.000E+01  5.000E-02  1.211E+00
   1    6    8     4     3    9.7275E+00  1.2689E-01   9.6006E+00  0.000E+00  0.000E+00  0.000E+00  1.06381E+03  6.256E-01  1.000E+01  3.500E-02  1.209E+00
   1    6    8     5     1    1.0432E+01  2.2686E-01   1.0205E+01  0.000E+00  0.000E+00  0.000E+00  1.05868E+03  6.790E-01  1.542E+01  6.166E-02  1.226E+00
   1    7    7     5     2    1.0205E+01  2.7894E-01   9.9265E+00  0.000E+00  0.000E+00  0.000E+00  1.05417E+03  6.732E-01  1.519E+01  7.594E-02  1.224E+00
   1    8    7     5     3    9.9265E+00  1.9221E-01   9.7343E+00  0.000E+00  0.000E+00  0.000E+00  1.04992E+03  6.676E-01  1.497E+01  5.241E-02  1.223E+00
   1    8    6     5     4    9.7343E+00  1.3577E-01   9.5985E+00  0.000E+00  0.000E+00  0.000E+00  1.04691E+03  6.637E-01  1.482E+01  3.706E-02  1.221E+00
   1    9    6     6     1    2.6192E+01  2.5512E-01   2.5937E+01  0.000E+00  0.000E+00  0.000E+00  1.04398E+03  1.252E+00  1.200E+01  6.000E-02  1.417E+00
   1   10    7     6     2    2.5937E+01  2.5468E-01   2.5682E+01  0.000E+00  0.000E+00  0.000E+00  1.03943E+03  1.245E+00  1.200E+01  6.000E-02  1.415E+00
   1   11    7     6     3    2.5682E+01  2.5424E-01   2.5428E+01  0.000E+00  0.000E+00  0.000E+00  1.03487E+03  1.237E+00  1.200E+01  6.000E-02  1.412E+00
   1   12    7     6     4    2.5428E+01  2.5379E-01   2.5174E+01  0.000E+00  0.000E+00  0.000E+00  1.03032E+03  1.230E+00  1.200E+01  6.000E-02  1.410E+00
   1   13    7     6     5    2.5174E+01  5.1782E-05   2.5174E+01  0.000E+00  0.000E+00  0.000E+00  1.02714E+03  1.226E+00  1.200E+01  2.400E-02  7.192E-04
   1   14    9     7     1    1.5000E+02  1.3355E+00   1.4866E+02  0.000E+00  0.000E+00  0.000E+00  1.03987E+03  2.288E+00  5.529E+01  5.593E-01  7.959E-01
   1   13    8     7     2    1.4866E+02  1.8267E+00   1.4684E+02  0.000E+00  0.000E+00  0.000E+00  1.03478E+03  2.279E+00  5.526E+01  6.148E-01  9.904E-01
   1   13    7     7     3    1.4684E+02  1.4279E+00   1.4541E+02  0.000E+00  0.000E+00  0.000E+00  1.02969E+03  2.271E+00  5.522E+01  5.585E-01  8.523E-01
   1   13    6     8     1    1.7058E+02  8.5698E-01   1.6973E+02  0.000E+00  0.000E+00  0.000E+00  1.02483E+03  2.953E+00  4.282E+01  4.364E-01  6.546E-01
   1   13    5     8     2    1.6973E+02  1.0259E-01   1.6962E+02  0.000E+00  0.000E+00  0.000E+00  1.01858E+03  2.950E+00  4.278E+01  4.359E-01  7.845E-02
   1   13    4     8     3    1.6962E+02 -3.0883E+00   1.7271E+02  0.000E+00  0.000E+00  0.000E+00  1.01233E+03  2.960E+00  4.292E+01  4.373E+00 -2.354E-01
   1   13    3     8     4    1.7271E+02 -4.1977E+00   1.7691E+02  0.000E+00  0.000E+00  0.000E+00  1.00611E+03  2.983E+00  4.326E+01  4.408E+00 -3.174E-01
   1   13    2     8     5    1.7691E+02 -3.1228E+00   1.8003E+02  0.000E+00  0.000E+00  0.000E+00  9.99882E+02  3.007E+00  4.359E+01  4.442E+00 -2.343E-01
   1   13    1     8     6    1.8003E+02 -2.2672E+00   1.8230E+02  0.000E+00  0.000E+00  0.000E+00  9.94898E+02  3.023E+00  4.384E+01  2.681E+00 -2.819E-01
   1    8    6     9     1    0.0000E+00  0.0000E+00   0.0000E+00  0.000E+00  0.000E+00  0.000E+00  1.07875E+03  0.000E+00  4.000E+00  0.000E+00  1.000E+00
   1    8    5     9     2    0.0000E+00  0.0000E+00   0.0000E+00  0.000E+00  0.000E+00  0.000E+00  1.07825E+03  0.000E+00  4.000E+00  0.000E+00  1.000E+00



 UBDSV3 SAVING "           GW ET" ON UNIT  61 AT TIME STEP  2, STRESS PERIOD   5
 UBDSV3 SAVING "    UZF RECHARGE" ON UNIT  61 AT TIME STEP  2, STRESS PERIOD   5
 UBDSV3 SAVING " SURFACE LEAKAGE" ON UNIT  61 AT TIME STEP  2, STRESS PERIOD   5
 UBDSV3 SAVING "       HORT+DUNN" ON UNIT  61 AT TIME STEP  2, STRESS PERIOD   5
 UBDSV3 SAVING "  STORAGE CHANGE" ON UNIT  61 AT TIME STEP  2, STRESS PERIOD   5


UNSATURATED ZONE PACKAGE VOLUMETRIC BUDGET FOR  TIME STEP     2 STRESS PERIOD    5
  ------------------------------------------------------------------------------



     CUMULATIVE VOLUMES      L**3       RATES FOR THIS TIME STEP      L**3/T
     ------------------                 ------------------------

           IN:                                      IN:
           ---                                      ---
        INFILTRATION =    35621179.3447          INFILTRATION =           4.4075

          OUT:                                     OUT:
          ----                                     ----
              UZF ET =    11024156.1292                UZF ET =          24.2544
        UZF RECHARGE =       73224.0000          UZF RECHARGE =       0.0000E+00

            IN - OUT =    24523799.2156              IN - OUT =         -19.8469

          STORAGE:                                 STORAGE:
          --------                                 --------
      STORAGE CHANGE =    24523798.9420        STORAGE CHANGE =         -19.8469

 PERCENT DISCREPANCY IS DIFFERENCE BETWEEN IN-OUT MINUS CHANGE IN STORAGE
 DIVIDED BY THE AVERAGE OF IN AND OUT TIMES 100

 PERCENT DISCREPANCY =           0.00     PERCENT DISCREPANCY =           0.00






 

            AG WELLS      PERIOD    5   STEP   2
 AG WELL      1   LAYER   1   ROW     6   COL     4   RATE     0.00000    
 AG WELL      2   LAYER   1   ROW     6   COL     5   RATE     0.00000    
 AG WELL      3   LAYER   1   ROW     7   COL     4   RATE     0.00000    
 AG WELL      4   LAYER   1   ROW     7   COL     5   RATE     0.00000    
 AG WELL      5   LAYER   1   ROW     8   COL     4   RATE     0.00000    
 AG WELL      6   LAYER   1   ROW     8   COL     5   RATE     0.00000    
 
 

   DIVERSION SEGMENTS     PERIOD    5   STEP   2
 SEGMENT      9   RATE     0.00000    
 
 

        SW IRRIGATION     PERIOD    5   STEP   2
 SEGMENT      9   ROW     6   COL     4   RATE     0.00000    
 SEGMENT      9   ROW     6   COL     5   RATE     0.00000    
 SEGMENT      9   ROW     7   COL     4   RATE     0.00000    
 SEGMENT      9   ROW     7   COL     5   RATE     0.00000    
 SEGMENT      9   ROW     8   COL     4   RATE     0.00000    
 SEGMENT      9   ROW     8   COL     5   RATE     0.00000    
 
 

        GW IRRIGATION     PERIOD    5   STEP   2
 AG WELL      1   ROW     6   COL     4   RATE     0.00000    
 AG WELL      2   ROW     6   COL     5   RATE     0.00000    
 AG WELL      3   ROW     7   COL     4   RATE     0.00000    
 AG WELL      4   ROW     7   COL     5   RATE     0.00000    
 AG WELL      5   ROW     8   COL     4   RATE     0.00000    
 AG WELL      6   ROW     8   COL     5   RATE     0.00000    
 
1
  VOLUMETRIC BUDGET FOR ENTIRE MODEL AT END OF TIME STEP    2, STRESS PERIOD   5
  ------------------------------------------------------------------------------

     CUMULATIVE VOLUMES      L**3       RATES FOR THIS TIME STEP      L**3/T
     ------------------                 ------------------------

           IN:                                      IN:
           ---                                      ---
               AG WELLS  =           0.0000                 AG WELLS  =           0.0000
        DIVERSION SEGMEN =       3.3139E-02          DIVERSION SEGMEN =           0.0000
    TS         GW IRRIGA =           0.0000      TS         GW IRRIGA =           0.0000
    TION         SW IRRI =           0.0000      TION         SW IRRI =           0.0000
    GATION      SYSTEM L =           0.0000      GATION      SYSTEM L =           0.0000
    OSSES GW      SYSTEM =           0.0000      OSSES GW      SYSTEM =           0.0000

                TOTAL IN =       3.3139E-02                  TOTAL IN =           0.0000

          OUT:                                     OUT:
          ----                                     ----
               AG WELLS  =           0.0000                 AG WELLS  =           0.0000
        DIVERSION SEGMEN =           0.0000          DIVERSION SEGMEN =           0.0000
    TS         GW IRRIGA =           0.0000      TS         GW IRRIGA =           0.0000
    TION         SW IRRI =       3.3139E-02      TION         SW IRRI =           0.0000
    GATION      SYSTEM L =           0.0000      GATION      SYSTEM L =           0.0000
    OSSES GW      SYSTEM =           0.0000      OSSES GW      SYSTEM =           0.0000

               TOTAL OUT =       3.3139E-02                 TOTAL OUT =           0.0000

                IN - OUT =      -6.5938E-07                  IN - OUT =           0.0000

     PERCENT DISCREPANCY =          -0.00         PERCENT DISCREPANCY =           0.00



1
  VOLUMETRIC BUDGET FOR ENTIRE MODEL AT END OF TIME STEP    2, STRESS PERIOD   5
  ------------------------------------------------------------------------------

     CUMULATIVE VOLUMES      L**3       RATES FOR THIS TIME STEP      L**3/T
     ------------------                 ------------------------

           IN:                                      IN:
           ---                                      ---
             STORAGE     =     4824371.5000               STORAGE     =           2.6038
       CONSTANT HEAD     =           0.0000         CONSTANT HEAD     =           0.0000
     HEAD DEP BOUNDS     =     2328828.0000       HEAD DEP BOUNDS     =           0.2857
      STREAM LEAKAGE     =    97886344.0000        STREAM LEAKAGE     =          11.3752
        UZF RECHARGE     =       73223.9531          UZF RECHARGE     =           0.0000
               GW ET     =           0.0000                 GW ET     =           0.0000
     SURFACE LEAKAGE     =           0.0000       SURFACE LEAKAGE     =           0.0000
           AG WELLS      =           0.0000             AG WELLS      =           0.0000

                TOTAL IN =   105112768.0000                  TOTAL IN =          14.2648

          OUT:                                     OUT:
          ----                                     ----
             STORAGE     =    18259848.0000               STORAGE     =           1.2941
       CONSTANT HEAD     =           0.0000         CONSTANT HEAD     =           0.0000
     HEAD DEP BOUNDS     =     2368222.0000       HEAD DEP BOUNDS     =           0.2943
      STREAM LEAKAGE     =    84488520.0000        STREAM LEAKAGE     =          12.6761
        UZF RECHARGE     =           0.0000          UZF RECHARGE     =           0.0000
               GW ET     =       1.1210E-05                 GW ET     =       1.1733E-10
     SURFACE LEAKAGE     =           0.0000       SURFACE LEAKAGE     =           0.0000
           AG WELLS      =           0.0000             AG WELLS      =           0.0000

               TOTAL OUT =   105116592.0000                 TOTAL OUT =          14.2644

                IN - OUT =       -3824.0000                  IN - OUT =       3.7766E-04

     PERCENT DISCREPANCY =          -0.00         PERCENT DISCREPANCY =           0.00






         TIME SUMMARY AT END OF TIME STEP    2 IN STRESS PERIOD    5
                    SECONDS     MINUTES      HOURS       DAYS        YEARS
                    -----------------------------------------------------------
   TIME STEP LENGTH  87667.      1461.1      24.352      1.0147     2.77799E-03
 STRESS PERIOD TIME 1.75333E+05  2922.2      48.704      2.0293     5.55598E-03
         TOTAL TIME 8.15173E+06 1.35862E+05  2264.4      94.349     0.25831    
1
 
 SOLVING FOR HEAD 
                                                   Max.-Head-Change                         Max.-Flux-Residual
  Residual-Control   Outer-Iter.   Inner-Iter.     Column Row Layer    Maximum-Head-Change  Column Row Layer    Maximum-Flux-Residual          L2-NORM 
          0                 1           2             2   13     1      -0.1009069522E-01       4   13    1        -0.5752992876E+00      0.1044826016E+01
          0                 2           2             4   13     1       0.9664748879E-03       4   13    1         0.5704833934E-01      0.1019352975E+00
          0                 3           1             4   13     1      -0.6503707606E-04       4   13    1        -0.3947051698E-02      0.6895767475E-02

    ------------------------------------------------
       NWT REQUIRED            3 OUTER ITERATIONS 
       AND A TOTAL OF          5 INNER ITERATIONS.
    ------------------------------------------------

 OUTPUT CONTROL FOR STRESS PERIOD    5   TIME STEP    3
    PRINT BUDGET
    SAVE BUDGET
 UBDSV1 SAVING "         STORAGE" ON UNIT 102 AT TIME STEP  3, STRESS PERIOD   5
 UBDSV2 SAVING "   CONSTANT HEAD" ON UNIT 102 AT TIME STEP  3, STRESS PERIOD   5
 UBDSV1 SAVING "FLOW RIGHT FACE " ON UNIT 102 AT TIME STEP  3, STRESS PERIOD   5
 UBDSV1 SAVING "FLOW FRONT FACE " ON UNIT 102 AT TIME STEP  3, STRESS PERIOD   5

  HEAD DEP BOUNDS   PERIOD    5   STEP     3
 BOUNDARY      1   LAYER   1   ROW    13   COL     1   RATE   -0.294094    
 BOUNDARY      2   LAYER   1   ROW    14   COL     9   RATE    0.285738    



 STREAM LISTING     PERIOD      5   STEP        3

 LAYER ROW COL. STREAM  RCH.  FLOW INTO     FLOW TO   FLOW OUT OF   OVRLND.     DIRECT     STREAM       STREAM     STREAM     STREAM   STREAMBED  STREAMBED
                SEG.NO.  NO.  STRM. RCH.    AQUIFER    STRM. RCH.    RUNOFF     PRECIP       ET          HEAD       DEPTH      WIDTH   CONDCTNC.   GRADIENT

   1    1    1     1     1    2.1000E+01  2.2591E-01   2.0774E+01  0.000E+00  0.000E+00  0.000E+00  1.09416E+03  1.115E+00  1.220E+01  5.490E-02  1.372E+00
   1    2    2     1     2    2.0774E+01  3.4916E-01   2.0425E+01  0.000E+00  0.000E+00  0.000E+00  1.08917E+03  1.110E+00  1.214E+01  8.495E-02  1.370E+00
   1    3    3     1     3    2.0425E+01  2.9709E-01   2.0128E+01  0.000E+00  0.000E+00  0.000E+00  1.08352E+03  1.105E+00  1.206E+01  7.238E-02  1.368E+00
   1    3    4     1     4    2.0128E+01  2.7299E-01   1.9855E+01  0.000E+00  0.000E+00  0.000E+00  1.07851E+03  1.100E+00  1.200E+01  6.659E-02  1.367E+00
   1    4    5     2     1    1.7855E+01  3.1056E-01   1.7544E+01  0.000E+00  0.000E+00  0.000E+00  1.07292E+03  9.816E-01  1.200E+01  7.800E-02  1.327E+00
   1    5    6     2     2    1.7544E+01  2.3834E-01   1.7306E+01  0.000E+00  0.000E+00  0.000E+00  1.06748E+03  9.724E-01  1.200E+01  6.000E-02  1.324E+00
   1    6    6     2     3    1.7306E+01  2.3786E-01   1.7068E+01  0.000E+00  0.000E+00  0.000E+00  1.06276E+03  9.644E-01  1.200E+01  6.000E-02  1.321E+00
   1    7    6     2     4    1.7068E+01  2.3738E-01   1.6831E+01  0.000E+00  0.000E+00  0.000E+00  1.05803E+03  9.564E-01  1.200E+01  6.000E-02  1.319E+00
   1    8    6     2     5    1.6831E+01  2.3690E-01   1.6594E+01  0.000E+00  0.000E+00  0.000E+00  1.05331E+03  9.483E-01  1.200E+01  6.000E-02  1.316E+00
   1    3    5     3     1    2.0000E+00  2.8252E-01   1.7175E+00  0.000E+00  0.000E+00  0.000E+00  1.07555E+03  1.909E+00  9.636E+00  7.227E-02  1.955E+00
   1    3    6     3     2    1.7175E+00  2.4905E-01   1.4684E+00  0.000E+00  0.000E+00  0.000E+00  1.07264E+03  1.727E+00  8.909E+00  6.682E-02  1.864E+00
   1    3    7     3     3    1.4684E+00  1.9718E-01   1.2712E+00  0.000E+00  0.000E+00  0.000E+00  1.06987E+03  1.555E+00  8.218E+00  5.547E-02  1.777E+00
   1    4    8     3     4    1.2712E+00  2.2567E-01   1.0456E+00  0.000E+00  0.000E+00  0.000E+00  1.06682E+03  1.364E+00  7.455E+00  6.709E-02  1.682E+00
   1    5    8     3     5    1.0456E+00  1.5790E-01   8.8768E-01  0.000E+00  0.000E+00  0.000E+00  1.06362E+03  1.164E+00  6.655E+00  4.991E-02  1.582E+00
   1    6    8     3     6    8.8768E-01  5.5980E-02   8.3170E-01  0.000E+00  0.000E+00  0.000E+00  1.06158E+03  1.036E+00  6.145E+00  1.844E-02  1.518E+00
   1    5   10     4     1    1.0000E+01  9.0919E-02   9.9091E+00  0.000E+00  0.000E+00  0.000E+00  1.07836E+03  6.368E-01  1.000E+01  2.500E-02  1.212E+00
   1    5    9     4     2    9.9091E+00  1.8158E-01   9.7275E+00  0.000E+00  0.000E+00  0.000E+00  1.07154E+03  6.315E-01  1.000E+01  5.000E-02  1.211E+00
   1    6    8     4     3    9.7275E+00  1.2689E-01   9.6006E+00  0.000E+00  0.000E+00  0.000E+00  1.06381E+03  6.256E-01  1.000E+01  3.500E-02  1.209E+00
   1    6    8     5     1    1.0432E+01  2.2686E-01   1.0205E+01  0.000E+00  0.000E+00  0.000E+00  1.05868E+03  6.790E-01  1.542E+01  6.166E-02  1.226E+00
   1    7    7     5     2    1.0205E+01  2.7894E-01   9.9265E+00  0.000E+00  0.000E+00  0.000E+00  1.05417E+03  6.732E-01  1.519E+01  7.594E-02  1.224E+00
   1    8    7     5     3    9.9265E+00  1.9221E-01   9.7343E+00  0.000E+00  0.000E+00  0.000E+00  1.04992E+03  6.676E-01  1.497E+01  5.241E-02  1.223E+00
   1    8    6     5     4    9.7343E+00  1.3577E-01   9.5985E+00  0.000E+00  0.000E+00  0.000E+00  1.04691E+03  6.637E-01  1.482E+01  3.706E-02  1.221E+00
   1    9    6     6     1    2.6192E+01  2.5512E-01   2.5937E+01  0.000E+00  0.000E+00  0.000E+00  1.04398E+03  1.252E+00  1.200E+01  6.000E-02  1.417E+00
   1   10    7     6     2    2.5937E+01  2.5468E-01   2.5682E+01  0.000E+00  0.000E+00  0.000E+00  1.03943E+03  1.245E+00  1.200E+01  6.000E-02  1.415E+00
   1   11    7     6     3    2.5682E+01  2.5424E-01   2.5428E+01  0.000E+00  0.000E+00  0.000E+00  1.03487E+03  1.237E+00  1.200E+01  6.000E-02  1.412E+00
   1   12    7     6     4    2.5428E+01  2.5379E-01   2.5174E+01  0.000E+00  0.000E+00  0.000E+00  1.03032E+03  1.230E+00  1.200E+01  6.000E-02  1.410E+00
   1   13    7     6     5    2.5174E+01  4.2799E-05   2.5174E+01  0.000E+00  0.000E+00  0.000E+00  1.02714E+03  1.226E+00  1.200E+01  2.400E-02  5.944E-04
   1   14    9     7     1    1.5000E+02  1.3355E+00   1.4866E+02  0.000E+00  0.000E+00  0.000E+00  1.03987E+03  2.288E+00  5.529E+01  5.593E-01  7.959E-01
   1   13    8     7     2    1.4866E+02  1.8266E+00   1.4684E+02  0.000E+00  0.000E+00  0.000E+00  1.03478E+03  2.279E+00  5.526E+01  6.148E-01  9.904E-01
   1   13    7     7     3    1.4684E+02  1.4277E+00   1.4541E+02  0.000E+00  0.000E+00  0.000E+00  1.02969E+03  2.271E+00  5.522E+01  5.585E-01  8.522E-01
   1   13    6     8     1    1.7058E+02  8.5750E-01   1.6973E+02  0.000E+00  0.000E+00  0.000E+00  1.02483E+03  2.953E+00  4.282E+01  4.364E-01  6.550E-01
   1   13    5     8     2    1.6973E+02  1.0291E-01   1.6962E+02  0.000E+00  0.000E+00  0.000E+00  1.01858E+03  2.950E+00  4.278E+01  4.359E-01  7.869E-02
   1   13    4     8     3    1.6962E+02 -3.0489E+00   1.7267E+02  0.000E+00  0.000E+00  0.000E+00  1.01233E+03  2.960E+00  4.292E+01  4.373E+00 -2.324E-01
   1   13    3     8     4    1.7267E+02 -4.1618E+00   1.7683E+02  0.000E+00  0.000E+00  0.000E+00  1.00611E+03  2.983E+00  4.325E+01  4.408E+00 -3.147E-01
   1   13    2     8     5    1.7683E+02 -3.0840E+00   1.7992E+02  0.000E+00  0.000E+00  0.000E+00  9.99881E+02  3.006E+00  4.359E+01  4.442E+00 -2.314E-01
   1   13    1     8     6    1.7992E+02 -2.2553E+00   1.8217E+02  0.000E+00  0.000E+00  0.000E+00  9.94898E+02  3.023E+00  4.383E+01  2.680E+00 -2.805E-01
   1    8    6     9     1    0.0000E+00  0.0000E+00   0.0000E+00  0.000E+00  0.000E+00  0.000E+00  1.07875E+03  0.000E+00  4.000E+00  0.000E+00  1.000E+00
   1    8    5     9     2    0.0000E+00  0.0000E+00   0.0000E+00  0.000E+00  0.000E+00  0.000E+00  1.07825E+03  0.000E+00  4.000E+00  0.000E+00  1.000E+00



 UBDSV3 SAVING "           GW ET" ON UNIT  61 AT TIME STEP  3, STRESS PERIOD   5
 UBDSV3 SAVING "    UZF RECHARGE" ON UNIT  61 AT TIME STEP  3, STRESS PERIOD   5
 UBDSV3 SAVING " SURFACE LEAKAGE" ON UNIT  61 AT TIME STEP  3, STRESS PERIOD   5
 UBDSV3 SAVING "       HORT+DUNN" ON UNIT  61 AT TIME STEP  3, STRESS PERIOD   5
 UBDSV3 SAVING "  STORAGE CHANGE" ON UNIT  61 AT TIME STEP  3, STRESS PERIOD   5


UNSATURATED ZONE PACKAGE VOLUMETRIC BUDGET FOR  TIME STEP     3 STRESS PERIOD    5
  ------------------------------------------------------------------------------



     CUMULATIVE VOLUMES      L**3       RATES FOR THIS TIME STEP      L**3/T
     ------------------                 ------------------------

           IN:                                      IN:
           ---                                      ---
        INFILTRATION =    36007570.1633          INFILTRATION =           4.4075

          OUT:                                     OUT:
          ----                                     ----
              UZF ET =    12837541.8970                UZF ET =          20.6850
        UZF RECHARGE =       73224.0000          UZF RECHARGE =       0.0000E+00

            IN - OUT =    23096804.2664              IN - OUT =         -16.2775

          STORAGE:                                 STORAGE:
          --------                                 --------
      STORAGE CHANGE =    23096803.9543        STORAGE CHANGE =         -16.2775

 PERCENT DISCREPANCY IS DIFFERENCE BETWEEN IN-OUT MINUS CHANGE IN STORAGE
 DIVIDED BY THE AVERAGE OF IN AND OUT TIMES 100

 PERCENT DISCREPANCY =           0.00     PERCENT DISCREPANCY =           0.00






 

            AG WELLS      PERIOD    5   STEP   3
 AG WELL      1   LAYER   1   ROW     6   COL     4   RATE     0.00000    
 AG WELL      2   LAYER   1   ROW     6   COL     5   RATE     0.00000    
 AG WELL      3   LAYER   1   ROW     7   COL     4   RATE     0.00000    
 AG WELL      4   LAYER   1   ROW     7   COL     5   RATE     0.00000    
 AG WELL      5   LAYER   1   ROW     8   COL     4   RATE     0.00000    
 AG WELL      6   LAYER   1   ROW     8   COL     5   RATE     0.00000    
 
 

   DIVERSION SEGMENTS     PERIOD    5   STEP   3
 SEGMENT      9   RATE     0.00000    
 
 

        SW IRRIGATION     PERIOD    5   STEP   3
 SEGMENT      9   ROW     6   COL     4   RATE     0.00000    
 SEGMENT      9   ROW     6   COL     5   RATE     0.00000    
 SEGMENT      9   ROW     7   COL     4   RATE     0.00000    
 SEGMENT      9   ROW     7   COL     5   RATE     0.00000    
 SEGMENT      9   ROW     8   COL     4   RATE     0.00000    
 SEGMENT      9   ROW     8   COL     5   RATE     0.00000    
 
 

        GW IRRIGATION     PERIOD    5   STEP   3
 AG WELL      1   ROW     6   COL     4   RATE     0.00000    
 AG WELL      2   ROW     6   COL     5   RATE     0.00000    
 AG WELL      3   ROW     7   COL     4   RATE     0.00000    
 AG WELL      4   ROW     7   COL     5   RATE     0.00000    
 AG WELL      5   ROW     8   COL     4   RATE     0.00000    
 AG WELL      6   ROW     8   COL     5   RATE     0.00000    
 
1
  VOLUMETRIC BUDGET FOR ENTIRE MODEL AT END OF TIME STEP    3, STRESS PERIOD   5
  ------------------------------------------------------------------------------

     CUMULATIVE VOLUMES      L**3       RATES FOR THIS TIME STEP      L**3/T
     ------------------                 ------------------------

           IN:                                      IN:
           ---                                      ---
               AG WELLS  =           0.0000                 AG WELLS  =           0.0000
        DIVERSION SEGMEN =       3.3139E-02          DIVERSION SEGMEN =           0.0000
    TS         GW IRRIGA =           0.0000      TS         GW IRRIGA =           0.0000
    TION         SW IRRI =           0.0000      TION         SW IRRI =           0.0000
    GATION      SYSTEM L =           0.0000      GATION      SYSTEM L =           0.0000
    OSSES GW      SYSTEM =           0.0000      OSSES GW      SYSTEM =           0.0000

                TOTAL IN =       3.3139E-02                  TOTAL IN =           0.0000

          OUT:                                     OUT:
          ----                                     ----
               AG WELLS  =           0.0000                 AG WELLS  =           0.0000
        DIVERSION SEGMEN =           0.0000          DIVERSION SEGMEN =           0.0000
    TS         GW IRRIGA =           0.0000      TS         GW IRRIGA =           0.0000
    TION         SW IRRI =       3.3139E-02      TION         SW IRRI =           0.0000
    GATION      SYSTEM L =           0.0000      GATION      SYSTEM L =           0.0000
    OSSES GW      SYSTEM =           0.0000      OSSES GW      SYSTEM =           0.0000

               TOTAL OUT =       3.3139E-02                 TOTAL OUT =           0.0000

                IN - OUT =      -6.5938E-07                  IN - OUT =           0.0000

     PERCENT DISCREPANCY =          -0.00         PERCENT DISCREPANCY =           0.00



1
  VOLUMETRIC BUDGET FOR ENTIRE MODEL AT END OF TIME STEP    3, STRESS PERIOD   5
  ------------------------------------------------------------------------------

     CUMULATIVE VOLUMES      L**3       RATES FOR THIS TIME STEP      L**3/T
     ------------------                 ------------------------

           IN:                                      IN:
           ---                                      ---
             STORAGE     =     5038764.0000               STORAGE     =           2.4455
       CONSTANT HEAD     =           0.0000         CONSTANT HEAD     =           0.0000
     HEAD DEP BOUNDS     =     2353877.7500       HEAD DEP BOUNDS     =           0.2857
      STREAM LEAKAGE     =    98883616.0000        STREAM LEAKAGE     =          11.3757
        UZF RECHARGE     =       73223.9531          UZF RECHARGE     =           0.0000
               GW ET     =           0.0000                 GW ET     =           0.0000
     SURFACE LEAKAGE     =           0.0000       SURFACE LEAKAGE     =           0.0000
           AG WELLS      =           0.0000             AG WELLS      =           0.0000

                TOTAL IN =   106349480.0000                  TOTAL IN =          14.1070

          OUT:                                     OUT:
          ----                                     ----
             STORAGE     =    18370492.0000               STORAGE     =           1.2621
       CONSTANT HEAD     =           0.0000         CONSTANT HEAD     =           0.0000
     HEAD DEP BOUNDS     =     2394004.2500       HEAD DEP BOUNDS     =           0.2941
      STREAM LEAKAGE     =    85588728.0000        STREAM LEAKAGE     =          12.5499
        UZF RECHARGE     =           0.0000          UZF RECHARGE     =           0.0000
               GW ET     =          53.8834                 GW ET     =       6.1464E-04
     SURFACE LEAKAGE     =           0.0000       SURFACE LEAKAGE     =           0.0000
           AG WELLS      =           0.0000             AG WELLS      =           0.0000

               TOTAL OUT =   106353280.0000                 TOTAL OUT =          14.1067

                IN - OUT =       -3800.0000                  IN - OUT =       3.4237E-04

     PERCENT DISCREPANCY =          -0.00         PERCENT DISCREPANCY =           0.00






         TIME SUMMARY AT END OF TIME STEP    3 IN STRESS PERIOD    5
                    SECONDS     MINUTES      HOURS       DAYS        YEARS
                    -----------------------------------------------------------
   TIME STEP LENGTH  87667.      1461.1      24.352      1.0147     2.77799E-03
 STRESS PERIOD TIME 2.63000E+05  4383.3      73.056      3.0440     8.33397E-03
         TOTAL TIME 8.23939E+06 1.37323E+05  2288.7      95.363     0.26109    
1
 
 SOLVING FOR HEAD 
                                                   Max.-Head-Change                         Max.-Flux-Residual
  Residual-Control   Outer-Iter.   Inner-Iter.     Column Row Layer    Maximum-Head-Change  Column Row Layer    Maximum-Flux-Residual          L2-NORM 
          0                 1           2             4   13     1      -0.9538787882E-02       4   13    1        -0.5570147776E+00      0.1016877896E+01
          0                 2           2             4   13     1       0.9200511799E-03       4   13    1         0.5523959212E-01      0.9924151634E-01
          0                 3           1             4   13     1      -0.6191399876E-04       4   13    1        -0.3821934793E-02      0.6715367748E-02

    ------------------------------------------------
       NWT REQUIRED            3 OUTER ITERATIONS 
       AND A TOTAL OF          5 INNER ITERATIONS.
    ------------------------------------------------

 OUTPUT CONTROL FOR STRESS PERIOD    5   TIME STEP    4
    PRINT BUDGET
    SAVE BUDGET
 UBDSV1 SAVING "         STORAGE" ON UNIT 102 AT TIME STEP  4, STRESS PERIOD   5
 UBDSV2 SAVING "   CONSTANT HEAD" ON UNIT 102 AT TIME STEP  4, STRESS PERIOD   5
 UBDSV1 SAVING "FLOW RIGHT FACE " ON UNIT 102 AT TIME STEP  4, STRESS PERIOD   5
 UBDSV1 SAVING "FLOW FRONT FACE " ON UNIT 102 AT TIME STEP  4, STRESS PERIOD   5

  HEAD DEP BOUNDS   PERIOD    5   STEP     4
 BOUNDARY      1   LAYER   1   ROW    13   COL     1   RATE   -0.293910    
 BOUNDARY      2   LAYER   1   ROW    14   COL     9   RATE    0.285739    



 STREAM LISTING     PERIOD      5   STEP        4

 LAYER ROW COL. STREAM  RCH.  FLOW INTO     FLOW TO   FLOW OUT OF   OVRLND.     DIRECT     STREAM       STREAM     STREAM     STREAM   STREAMBED  STREAMBED
                SEG.NO.  NO.  STRM. RCH.    AQUIFER    STRM. RCH.    RUNOFF     PRECIP       ET          HEAD       DEPTH      WIDTH   CONDCTNC.   GRADIENT

   1    1    1     1     1    2.1000E+01  2.2591E-01   2.0774E+01  0.000E+00  0.000E+00  0.000E+00  1.09416E+03  1.115E+00  1.220E+01  5.490E-02  1.372E+00
   1    2    2     1     2    2.0774E+01  3.4916E-01   2.0425E+01  0.000E+00  0.000E+00  0.000E+00  1.08917E+03  1.110E+00  1.214E+01  8.495E-02  1.370E+00
   1    3    3     1     3    2.0425E+01  2.9709E-01   2.0128E+01  0.000E+00  0.000E+00  0.000E+00  1.08352E+03  1.105E+00  1.206E+01  7.238E-02  1.368E+00
   1    3    4     1     4    2.0128E+01  2.7299E-01   1.9855E+01  0.000E+00  0.000E+00  0.000E+00  1.07851E+03  1.100E+00  1.200E+01  6.659E-02  1.367E+00
   1    4    5     2     1    1.7855E+01  3.1056E-01   1.7544E+01  0.000E+00  0.000E+00  0.000E+00  1.07292E+03  9.816E-01  1.200E+01  7.800E-02  1.327E+00
   1    5    6     2     2    1.7544E+01  2.3834E-01   1.7306E+01  0.000E+00  0.000E+00  0.000E+00  1.06748E+03  9.724E-01  1.200E+01  6.000E-02  1.324E+00
   1    6    6     2     3    1.7306E+01  2.3786E-01   1.7068E+01  0.000E+00  0.000E+00  0.000E+00  1.06276E+03  9.644E-01  1.200E+01  6.000E-02  1.321E+00
   1    7    6     2     4    1.7068E+01  2.3738E-01   1.6831E+01  0.000E+00  0.000E+00  0.000E+00  1.05803E+03  9.564E-01  1.200E+01  6.000E-02  1.319E+00
   1    8    6     2     5    1.6831E+01  2.3690E-01   1.6594E+01  0.000E+00  0.000E+00  0.000E+00  1.05331E+03  9.483E-01  1.200E+01  6.000E-02  1.316E+00
   1    3    5     3     1    2.0000E+00  2.8252E-01   1.7175E+00  0.000E+00  0.000E+00  0.000E+00  1.07555E+03  1.909E+00  9.636E+00  7.227E-02  1.955E+00
   1    3    6     3     2    1.7175E+00  2.4905E-01   1.4684E+00  0.000E+00  0.000E+00  0.000E+00  1.07264E+03  1.727E+00  8.909E+00  6.682E-02  1.864E+00
   1    3    7     3     3    1.4684E+00  1.9718E-01   1.2712E+00  0.000E+00  0.000E+00  0.000E+00  1.06987E+03  1.555E+00  8.218E+00  5.547E-02  1.777E+00
   1    4    8     3     4    1.2712E+00  2.2567E-01   1.0456E+00  0.000E+00  0.000E+00  0.000E+00  1.06682E+03  1.364E+00  7.455E+00  6.709E-02  1.682E+00
   1    5    8     3     5    1.0456E+00  1.5790E-01   8.8768E-01  0.000E+00  0.000E+00  0.000E+00  1.06362E+03  1.164E+00  6.655E+00  4.991E-02  1.582E+00
   1    6    8     3     6    8.8768E-01  5.5980E-02   8.3170E-01  0.000E+00  0.000E+00  0.000E+00  1.06158E+03  1.036E+00  6.145E+00  1.844E-02  1.518E+00
   1    5   10     4     1    1.0000E+01  9.0919E-02   9.9091E+00  0.000E+00  0.000E+00  0.000E+00  1.07836E+03  6.368E-01  1.000E+01  2.500E-02  1.212E+00
   1    5    9     4     2    9.9091E+00  1.8158E-01   9.7275E+00  0.000E+00  0.000E+00  0.000E+00  1.07154E+03  6.315E-01  1.000E+01  5.000E-02  1.211E+00
   1    6    8     4     3    9.7275E+00  1.2689E-01   9.6006E+00  0.000E+00  0.000E+00  0.000E+00  1.06381E+03  6.256E-01  1.000E+01  3.500E-02  1.209E+00
   1    6    8     5     1    1.0432E+01  2.2686E-01   1.0205E+01  0.000E+00  0.000E+00  0.000E+00  1.05868E+03  6.790E-01  1.542E+01  6.166E-02  1.226E+00
   1    7    7     5     2    1.0205E+01  2.7894E-01   9.9265E+00  0.000E+00  0.000E+00  0.000E+00  1.05417E+03  6.732E-01  1.519E+01  7.594E-02  1.224E+00
   1    8    7     5     3    9.9265E+00  1.9221E-01   9.7343E+00  0.000E+00  0.000E+00  0.000E+00  1.04992E+03  6.676E-01  1.497E+01  5.241E-02  1.223E+00
   1    8    6     5     4    9.7343E+00  1.3577E-01   9.5985E+00  0.000E+00  0.000E+00  0.000E+00  1.04691E+03  6.637E-01  1.482E+01  3.706E-02  1.221E+00
   1    9    6     6     1    2.6192E+01  2.5512E-01   2.5937E+01  0.000E+00  0.000E+00  0.000E+00  1.04398E+03  1.252E+00  1.200E+01  6.000E-02  1.417E+00
   1   10    7     6     2    2.5937E+01  2.5468E-01   2.5682E+01  0.000E+00  0.000E+00  0.000E+00  1.03943E+03  1.245E+00  1.200E+01  6.000E-02  1.415E+00
   1   11    7     6     3    2.5682E+01  2.5424E-01   2.5428E+01  0.000E+00  0.000E+00  0.000E+00  1.03487E+03  1.237E+00  1.200E+01  6.000E-02  1.412E+00
   1   12    7     6     4    2.5428E+01  2.5379E-01   2.5174E+01  0.000E+00  0.000E+00  0.000E+00  1.03032E+03  1.230E+00  1.200E+01  6.000E-02  1.410E+00
   1   13    7     6     5    2.5174E+01  3.4348E-05   2.5174E+01  0.000E+00  0.000E+00  0.000E+00  1.02714E+03  1.226E+00  1.200E+01  2.400E-02  4.771E-04
   1   14    9     7     1    1.5000E+02  1.3355E+00   1.4866E+02  0.000E+00  0.000E+00  0.000E+00  1.03987E+03  2.288E+00  5.529E+01  5.593E-01  7.959E-01
   1   13    8     7     2    1.4866E+02  1.8264E+00   1.4684E+02  0.000E+00  0.000E+00  0.000E+00  1.03478E+03  2.279E+00  5.526E+01  6.148E-01  9.903E-01
   1   13    7     7     3    1.4684E+02  1.4275E+00   1.4541E+02  0.000E+00  0.000E+00  0.000E+00  1.02969E+03  2.271E+00  5.522E+01  5.585E-01  8.521E-01
   1   13    6     8     1    1.7058E+02  8.5801E-01   1.6973E+02  0.000E+00  0.000E+00  0.000E+00  1.02483E+03  2.953E+00  4.282E+01  4.364E-01  6.554E-01
   1   13    5     8     2    1.6973E+02  1.0326E-01   1.6962E+02  0.000E+00  0.000E+00  0.000E+00  1.01858E+03  2.950E+00  4.278E+01  4.359E-01  7.896E-02
   1   13    4     8     3    1.6962E+02 -3.0113E+00   1.7264E+02  0.000E+00  0.000E+00  0.000E+00  1.01233E+03  2.960E+00  4.291E+01  4.373E+00 -2.295E-01
   1   13    3     8     4    1.7264E+02 -4.1253E+00   1.7676E+02  0.000E+00  0.000E+00  0.000E+00  1.00611E+03  2.983E+00  4.325E+01  4.407E+00 -3.120E-01
   1   13    2     8     5    1.7676E+02 -3.0481E+00   1.7981E+02  0.000E+00  0.000E+00  0.000E+00  9.99880E+02  3.005E+00  4.358E+01  4.441E+00 -2.288E-01
   1   13    1     8     6    1.7981E+02 -2.2437E+00   1.8205E+02  0.000E+00  0.000E+00  0.000E+00  9.94897E+02  3.022E+00  4.382E+01  2.679E+00 -2.792E-01
   1    8    6     9     1    0.0000E+00  0.0000E+00   0.0000E+00  0.000E+00  0.000E+00  0.000E+00  1.07875E+03  0.000E+00  4.000E+00  0.000E+00  1.000E+00
   1    8    5     9     2    0.0000E+00  0.0000E+00   0.0000E+00  0.000E+00  0.000E+00  0.000E+00  1.07825E+03  0.000E+00  4.000E+00  0.000E+00  1.000E+00



 UBDSV3 SAVING "           GW ET" ON UNIT  61 AT TIME STEP  4, STRESS PERIOD   5
 UBDSV3 SAVING "    UZF RECHARGE" ON UNIT  61 AT TIME STEP  4, STRESS PERIOD   5
 UBDSV3 SAVING " SURFACE LEAKAGE" ON UNIT  61 AT TIME STEP  4, STRESS PERIOD   5
 UBDSV3 SAVING "       HORT+DUNN" ON UNIT  61 AT TIME STEP  4, STRESS PERIOD   5
 UBDSV3 SAVING "  STORAGE CHANGE" ON UNIT  61 AT TIME STEP  4, STRESS PERIOD   5


UNSATURATED ZONE PACKAGE VOLUMETRIC BUDGET FOR  TIME STEP     4 STRESS PERIOD    5
  ------------------------------------------------------------------------------



     CUMULATIVE VOLUMES      L**3       RATES FOR THIS TIME STEP      L**3/T
     ------------------                 ------------------------

           IN:                                      IN:
           ---                                      ---
        INFILTRATION =    36393960.9819          INFILTRATION =           4.4075

          OUT:                                     OUT:
          ----                                     ----
              UZF ET =    14004117.1814                UZF ET =          13.3069
        UZF RECHARGE =       73224.0000          UZF RECHARGE =       0.0000E+00

            IN - OUT =    22316619.8005              IN - OUT =          -8.8994

          STORAGE:                                 STORAGE:
          --------                                 --------
      STORAGE CHANGE =    22316619.4869        STORAGE CHANGE =          -8.8994

 PERCENT DISCREPANCY IS DIFFERENCE BETWEEN IN-OUT MINUS CHANGE IN STORAGE
 DIVIDED BY THE AVERAGE OF IN AND OUT TIMES 100

 PERCENT DISCREPANCY =           0.00     PERCENT DISCREPANCY =           0.00






 

            AG WELLS      PERIOD    5   STEP   4
 AG WELL      1   LAYER   1   ROW     6   COL     4   RATE     0.00000    
 AG WELL      2   LAYER   1   ROW     6   COL     5   RATE     0.00000    
 AG WELL      3   LAYER   1   ROW     7   COL     4   RATE     0.00000    
 AG WELL      4   LAYER   1   ROW     7   COL     5   RATE     0.00000    
 AG WELL      5   LAYER   1   ROW     8   COL     4   RATE     0.00000    
 AG WELL      6   LAYER   1   ROW     8   COL     5   RATE     0.00000    
 
 

   DIVERSION SEGMENTS     PERIOD    5   STEP   4
 SEGMENT      9   RATE     0.00000    
 
 

        SW IRRIGATION     PERIOD    5   STEP   4
 SEGMENT      9   ROW     6   COL     4   RATE     0.00000    
 SEGMENT      9   ROW     6   COL     5   RATE     0.00000    
 SEGMENT      9   ROW     7   COL     4   RATE     0.00000    
 SEGMENT      9   ROW     7   COL     5   RATE     0.00000    
 SEGMENT      9   ROW     8   COL     4   RATE     0.00000    
 SEGMENT      9   ROW     8   COL     5   RATE     0.00000    
 
 

        GW IRRIGATION     PERIOD    5   STEP   4
 AG WELL      1   ROW     6   COL     4   RATE     0.00000    
 AG WELL      2   ROW     6   COL     5   RATE     0.00000    
 AG WELL      3   ROW     7   COL     4   RATE     0.00000    
 AG WELL      4   ROW     7   COL     5   RATE     0.00000    
 AG WELL      5   ROW     8   COL     4   RATE     0.00000    
 AG WELL      6   ROW     8   COL     5   RATE     0.00000    
 
1
  VOLUMETRIC BUDGET FOR ENTIRE MODEL AT END OF TIME STEP    4, STRESS PERIOD   5
  ------------------------------------------------------------------------------

     CUMULATIVE VOLUMES      L**3       RATES FOR THIS TIME STEP      L**3/T
     ------------------                 ------------------------

           IN:                                      IN:
           ---                                      ---
               AG WELLS  =           0.0000                 AG WELLS  =           0.0000
        DIVERSION SEGMEN =       3.3139E-02          DIVERSION SEGMEN =           0.0000
    TS         GW IRRIGA =           0.0000      TS         GW IRRIGA =           0.0000
    TION         SW IRRI =           0.0000      TION         SW IRRI =           0.0000
    GATION      SYSTEM L =           0.0000      GATION      SYSTEM L =           0.0000
    OSSES GW      SYSTEM =           0.0000      OSSES GW      SYSTEM =           0.0000

                TOTAL IN =       3.3139E-02                  TOTAL IN =           0.0000

          OUT:                                     OUT:
          ----                                     ----
               AG WELLS  =           0.0000                 AG WELLS  =           0.0000
        DIVERSION SEGMEN =           0.0000          DIVERSION SEGMEN =           0.0000
    TS         GW IRRIGA =           0.0000      TS         GW IRRIGA =           0.0000
    TION         SW IRRI =       3.3139E-02      TION         SW IRRI =           0.0000
    GATION      SYSTEM L =           0.0000      GATION      SYSTEM L =           0.0000
    OSSES GW      SYSTEM =           0.0000      OSSES GW      SYSTEM =           0.0000

               TOTAL OUT =       3.3139E-02                 TOTAL OUT =           0.0000

                IN - OUT =      -6.5938E-07                  IN - OUT =           0.0000

     PERCENT DISCREPANCY =          -0.00         PERCENT DISCREPANCY =           0.00



1
  VOLUMETRIC BUDGET FOR ENTIRE MODEL AT END OF TIME STEP    4, STRESS PERIOD   5
  ------------------------------------------------------------------------------

     CUMULATIVE VOLUMES      L**3       RATES FOR THIS TIME STEP      L**3/T
     ------------------                 ------------------------

           IN:                                      IN:
           ---                                      ---
             STORAGE     =     5246380.5000               STORAGE     =           2.3682
       CONSTANT HEAD     =           0.0000         CONSTANT HEAD     =           0.0000
     HEAD DEP BOUNDS     =     2378927.5000       HEAD DEP BOUNDS     =           0.2857
      STREAM LEAKAGE     =    99880936.0000        STREAM LEAKAGE     =          11.3763
        UZF RECHARGE     =       73223.9531          UZF RECHARGE     =           0.0000
               GW ET     =           0.0000                 GW ET     =           0.0000
     SURFACE LEAKAGE     =           0.0000       SURFACE LEAKAGE     =           0.0000
           AG WELLS      =           0.0000             AG WELLS      =           0.0000

                TOTAL IN =   107579464.0000                  TOTAL IN =          14.0302

          OUT:                                     OUT:
          ----                                     ----
             STORAGE     =    18478436.0000               STORAGE     =           1.2313
       CONSTANT HEAD     =           0.0000         CONSTANT HEAD     =           0.0000
     HEAD DEP BOUNDS     =     2419770.2500       HEAD DEP BOUNDS     =           0.2939
      STREAM LEAKAGE     =    86678288.0000        STREAM LEAKAGE     =          12.4285
        UZF RECHARGE     =           0.0000          UZF RECHARGE     =           0.0000
               GW ET     =        6737.3994                 GW ET     =       7.6238E-02
     SURFACE LEAKAGE     =           0.0000       SURFACE LEAKAGE     =           0.0000
           AG WELLS      =           0.0000             AG WELLS      =           0.0000

               TOTAL OUT =   107583232.0000                 TOTAL OUT =          14.0299

                IN - OUT =       -3768.0000                  IN - OUT =       3.3379E-04

     PERCENT DISCREPANCY =          -0.00         PERCENT DISCREPANCY =           0.00






         TIME SUMMARY AT END OF TIME STEP    4 IN STRESS PERIOD    5
                    SECONDS     MINUTES      HOURS       DAYS        YEARS
                    -----------------------------------------------------------
   TIME STEP LENGTH  87667.      1461.1      24.352      1.0147     2.77799E-03
 STRESS PERIOD TIME 3.50667E+05  5844.4      97.407      4.0586     1.11120E-02
         TOTAL TIME 8.32706E+06 1.38784E+05  2313.1      96.378     0.26387    
1
 
 SOLVING FOR HEAD 
                                                   Max.-Head-Change                         Max.-Flux-Residual
  Residual-Control   Outer-Iter.   Inner-Iter.     Column Row Layer    Maximum-Head-Change  Column Row Layer    Maximum-Flux-Residual          L2-NORM 
          0                 1           2             2   13     1      -0.8657757451E-02       4   13    1        -0.4957219577E+00      0.9317517880E+00
          0                 2           2             2   13     1      -0.2302893004E-03       4   13    1        -0.1331224924E-01      0.3577080347E-01
          0                 3           2             7   13     1      -0.3284594616E-03       7   13    1        -0.1830789842E-01      0.1863860206E-01
          0                 4           1             7   13     1       0.2235882606E-04       7   13    1         0.1281035349E-02      0.1300456830E-02

    ------------------------------------------------
       NWT REQUIRED            4 OUTER ITERATIONS 
       AND A TOTAL OF          7 INNER ITERATIONS.
    ------------------------------------------------

 NO OUTPUT CONTROL FOR STRESS PERIOD    5   TIME STEP    5
 
 SOLVING FOR HEAD 
                                                   Max.-Head-Change                         Max.-Flux-Residual
  Residual-Control   Outer-Iter.   Inner-Iter.     Column Row Layer    Maximum-Head-Change  Column Row Layer    Maximum-Flux-Residual          L2-NORM 
          0                 1           2             2   13     1      -0.7940732612E-02       2   13    1        -0.4465923912E+00      0.8467771802E+00
          0                 2           2             2   13     1       0.7417603335E-03       4   13    1         0.4309926785E-01      0.8269175798E-01
          0                 3           1             4   13     1      -0.4834991902E-04       4   13    1        -0.2981719108E-02      0.5600384327E-02

    ------------------------------------------------
       NWT REQUIRED            3 OUTER ITERATIONS 
       AND A TOTAL OF          5 INNER ITERATIONS.
    ------------------------------------------------

 OUTPUT CONTROL FOR STRESS PERIOD    5   TIME STEP    6
    PRINT BUDGET
    SAVE BUDGET
 UBDSV1 SAVING "         STORAGE" ON UNIT 102 AT TIME STEP  6, STRESS PERIOD   5
 UBDSV2 SAVING "   CONSTANT HEAD" ON UNIT 102 AT TIME STEP  6, STRESS PERIOD   5
 UBDSV1 SAVING "FLOW RIGHT FACE " ON UNIT 102 AT TIME STEP  6, STRESS PERIOD   5
 UBDSV1 SAVING "FLOW FRONT FACE " ON UNIT 102 AT TIME STEP  6, STRESS PERIOD   5

  HEAD DEP BOUNDS   PERIOD    5   STEP     6
 BOUNDARY      1   LAYER   1   ROW    13   COL     1   RATE   -0.293544    
 BOUNDARY      2   LAYER   1   ROW    14   COL     9   RATE    0.285740    



 STREAM LISTING     PERIOD      5   STEP        6

 LAYER ROW COL. STREAM  RCH.  FLOW INTO     FLOW TO   FLOW OUT OF   OVRLND.     DIRECT     STREAM       STREAM     STREAM     STREAM   STREAMBED  STREAMBED
                SEG.NO.  NO.  STRM. RCH.    AQUIFER    STRM. RCH.    RUNOFF     PRECIP       ET          HEAD       DEPTH      WIDTH   CONDCTNC.   GRADIENT

   1    1    1     1     1    2.1000E+01  2.2592E-01   2.0774E+01  0.000E+00  0.000E+00  0.000E+00  1.09416E+03  1.115E+00  1.220E+01  5.490E-02  1.372E+00
   1    2    2     1     2    2.0774E+01  3.4916E-01   2.0425E+01  0.000E+00  0.000E+00  0.000E+00  1.08917E+03  1.110E+00  1.214E+01  8.495E-02  1.370E+00
   1    3    3     1     3    2.0425E+01  2.9709E-01   2.0128E+01  0.000E+00  0.000E+00  0.000E+00  1.08352E+03  1.105E+00  1.206E+01  7.238E-02  1.368E+00
   1    3    4     1     4    2.0128E+01  2.7299E-01   1.9855E+01  0.000E+00  0.000E+00  0.000E+00  1.07851E+03  1.100E+00  1.200E+01  6.659E-02  1.367E+00
   1    4    5     2     1    1.7855E+01  3.1056E-01   1.7544E+01  0.000E+00  0.000E+00  0.000E+00  1.07292E+03  9.816E-01  1.200E+01  7.800E-02  1.327E+00
   1    5    6     2     2    1.7544E+01  2.3834E-01   1.7306E+01  0.000E+00  0.000E+00  0.000E+00  1.06748E+03  9.724E-01  1.200E+01  6.000E-02  1.324E+00
   1    6    6     2     3    1.7306E+01  2.3787E-01   1.7068E+01  0.000E+00  0.000E+00  0.000E+00  1.06276E+03  9.644E-01  1.200E+01  6.000E-02  1.321E+00
   1    7    6     2     4    1.7068E+01  2.3738E-01   1.6831E+01  0.000E+00  0.000E+00  0.000E+00  1.05803E+03  9.564E-01  1.200E+01  6.000E-02  1.319E+00
   1    8    6     2     5    1.6831E+01  2.3690E-01   1.6594E+01  0.000E+00  0.000E+00  0.000E+00  1.05331E+03  9.483E-01  1.200E+01  6.000E-02  1.316E+00
   1    3    5     3     1    2.0000E+00  2.8252E-01   1.7175E+00  0.000E+00  0.000E+00  0.000E+00  1.07555E+03  1.909E+00  9.636E+00  7.227E-02  1.955E+00
   1    3    6     3     2    1.7175E+00  2.4905E-01   1.4684E+00  0.000E+00  0.000E+00  0.000E+00  1.07264E+03  1.727E+00  8.909E+00  6.682E-02  1.864E+00
   1    3    7     3     3    1.4684E+00  1.9718E-01   1.2712E+00  0.000E+00  0.000E+00  0.000E+00  1.06987E+03  1.555E+00  8.218E+00  5.547E-02  1.777E+00
   1    4    8     3     4    1.2712E+00  2.2567E-01   1.0456E+00  0.000E+00  0.000E+00  0.000E+00  1.06682E+03  1.364E+00  7.455E+00  6.709E-02  1.682E+00
   1    5    8     3     5    1.0456E+00  1.5790E-01   8.8768E-01  0.000E+00  0.000E+00  0.000E+00  1.06362E+03  1.164E+00  6.655E+00  4.991E-02  1.582E+00
   1    6    8     3     6    8.8768E-01  5.5980E-02   8.3170E-01  0.000E+00  0.000E+00  0.000E+00  1.06158E+03  1.036E+00  6.145E+00  1.844E-02  1.518E+00
   1    5   10     4     1    1.0000E+01  9.0919E-02   9.9091E+00  0.000E+00  0.000E+00  0.000E+00  1.07836E+03  6.368E-01  1.000E+01  2.500E-02  1.212E+00
   1    5    9     4     2    9.9091E+00  1.8158E-01   9.7275E+00  0.000E+00  0.000E+00  0.000E+00  1.07154E+03  6.315E-01  1.000E+01  5.000E-02  1.211E+00
   1    6    8     4     3    9.7275E+00  1.2689E-01   9.6006E+00  0.000E+00  0.000E+00  0.000E+00  1.06381E+03  6.256E-01  1.000E+01  3.500E-02  1.209E+00
   1    6    8     5     1    1.0432E+01  2.2686E-01   1.0205E+01  0.000E+00  0.000E+00  0.000E+00  1.05868E+03  6.790E-01  1.542E+01  6.166E-02  1.226E+00
   1    7    7     5     2    1.0205E+01  2.7894E-01   9.9265E+00  0.000E+00  0.000E+00  0.000E+00  1.05417E+03  6.732E-01  1.519E+01  7.594E-02  1.224E+00
   1    8    7     5     3    9.9265E+00  1.9221E-01   9.7343E+00  0.000E+00  0.000E+00  0.000E+00  1.04992E+03  6.676E-01  1.497E+01  5.241E-02  1.223E+00
   1    8    6     5     4    9.7343E+00  1.3577E-01   9.5985E+00  0.000E+00  0.000E+00  0.000E+00  1.04691E+03  6.637E-01  1.482E+01  3.706E-02  1.221E+00
   1    9    6     6     1    2.6192E+01  2.5512E-01   2.5937E+01  0.000E+00  0.000E+00  0.000E+00  1.04398E+03  1.252E+00  1.200E+01  6.000E-02  1.417E+00
   1   10    7     6     2    2.5937E+01  2.5468E-01   2.5683E+01  0.000E+00  0.000E+00  0.000E+00  1.03943E+03  1.245E+00  1.200E+01  6.000E-02  1.415E+00
   1   11    7     6     3    2.5683E+01  2.5424E-01   2.5428E+01  0.000E+00  0.000E+00  0.000E+00  1.03487E+03  1.237E+00  1.200E+01  6.000E-02  1.412E+00
   1   12    7     6     4    2.5428E+01  2.5379E-01   2.5175E+01  0.000E+00  0.000E+00  0.000E+00  1.03032E+03  1.230E+00  1.200E+01  6.000E-02  1.410E+00
   1   13    7     6     5    2.5175E+01  2.7130E-05   2.5175E+01  0.000E+00  0.000E+00  0.000E+00  1.02714E+03  1.226E+00  1.200E+01  2.400E-02  3.768E-04
   1   14    9     7     1    1.5000E+02  1.3355E+00   1.4866E+02  0.000E+00  0.000E+00  0.000E+00  1.03987E+03  2.288E+00  5.529E+01  5.593E-01  7.960E-01
   1   13    8     7     2    1.4866E+02  1.8262E+00   1.4684E+02  0.000E+00  0.000E+00  0.000E+00  1.03478E+03  2.279E+00  5.526E+01  6.148E-01  9.901E-01
   1   13    7     7     3    1.4684E+02  1.4273E+00   1.4541E+02  0.000E+00  0.000E+00  0.000E+00  1.02969E+03  2.271E+00  5.522E+01  5.585E-01  8.520E-01
   1   13    6     8     1    1.7059E+02  8.5905E-01   1.6973E+02  0.000E+00  0.000E+00  0.000E+00  1.02483E+03  2.953E+00  4.282E+01  4.364E-01  6.562E-01
   1   13    5     8     2    1.6973E+02  1.0410E-01   1.6962E+02  0.000E+00  0.000E+00  0.000E+00  1.01858E+03  2.950E+00  4.278E+01  4.359E-01  7.961E-02
   1   13    4     8     3    1.6962E+02 -2.9444E+00   1.7257E+02  0.000E+00  0.000E+00  0.000E+00  1.01233E+03  2.959E+00  4.291E+01  4.373E+00 -2.245E-01
   1   13    3     8     4    1.7257E+02 -4.0594E+00   1.7663E+02  0.000E+00  0.000E+00  0.000E+00  1.00611E+03  2.982E+00  4.324E+01  4.406E+00 -3.071E-01
   1   13    2     8     5    1.7663E+02 -2.9802E+00   1.7961E+02  0.000E+00  0.000E+00  0.000E+00  9.99879E+02  3.004E+00  4.356E+01  4.439E+00 -2.238E-01
   1   13    1     8     6    1.7961E+02 -2.2205E+00   1.8183E+02  0.000E+00  0.000E+00  0.000E+00  9.94896E+02  3.021E+00  4.380E+01  2.678E+00 -2.764E-01
   1    8    6     9     1    0.0000E+00  0.0000E+00   0.0000E+00  0.000E+00  0.000E+00  0.000E+00  1.07875E+03  0.000E+00  4.000E+00  0.000E+00  1.000E+00
   1    8    5     9     2    0.0000E+00  0.0000E+00   0.0000E+00  0.000E+00  0.000E+00  0.000E+00  1.07825E+03  0.000E+00  4.000E+00  0.000E+00  1.000E+00



 UBDSV3 SAVING "           GW ET" ON UNIT  61 AT TIME STEP  6, STRESS PERIOD   5
 UBDSV3 SAVING "    UZF RECHARGE" ON UNIT  61 AT TIME STEP  6, STRESS PERIOD   5
 UBDSV3 SAVING " SURFACE LEAKAGE" ON UNIT  61 AT TIME STEP  6, STRESS PERIOD   5
 UBDSV3 SAVING "       HORT+DUNN" ON UNIT  61 AT TIME STEP  6, STRESS PERIOD   5
 UBDSV3 SAVING "  STORAGE CHANGE" ON UNIT  61 AT TIME STEP  6, STRESS PERIOD   5


UNSATURATED ZONE PACKAGE VOLUMETRIC BUDGET FOR  TIME STEP     6 STRESS PERIOD    5
  ------------------------------------------------------------------------------



     CUMULATIVE VOLUMES      L**3       RATES FOR THIS TIME STEP      L**3/T
     ------------------                 ------------------------

           IN:                                      IN:
           ---                                      ---
        INFILTRATION =    37424983.1316          INFILTRATION =           4.4075

          OUT:                                     OUT:
          ----                                     ----
              UZF ET =    16597065.5774                UZF ET =          13.3387
        UZF RECHARGE =       73224.0000          UZF RECHARGE =       0.0000E+00

            IN - OUT =    20754693.5542              IN - OUT =          -8.9312

          STORAGE:                                 STORAGE:
          --------                                 --------
      STORAGE CHANGE =    20754693.2221        STORAGE CHANGE =          -8.9312

 PERCENT DISCREPANCY IS DIFFERENCE BETWEEN IN-OUT MINUS CHANGE IN STORAGE
 DIVIDED BY THE AVERAGE OF IN AND OUT TIMES 100

 PERCENT DISCREPANCY =           0.00     PERCENT DISCREPANCY =           0.00






 

            AG WELLS      PERIOD    5   STEP   6
 AG WELL      1   LAYER   1   ROW     6   COL     4   RATE     0.00000    
 AG WELL      2   LAYER   1   ROW     6   COL     5   RATE     0.00000    
 AG WELL      3   LAYER   1   ROW     7   COL     4   RATE     0.00000    
 AG WELL      4   LAYER   1   ROW     7   COL     5   RATE     0.00000    
 AG WELL      5   LAYER   1   ROW     8   COL     4   RATE     0.00000    
 AG WELL      6   LAYER   1   ROW     8   COL     5   RATE     0.00000    
 
 

   DIVERSION SEGMENTS     PERIOD    5   STEP   6
 SEGMENT      9   RATE     0.00000    
 
 

        SW IRRIGATION     PERIOD    5   STEP   6
 SEGMENT      9   ROW     6   COL     4   RATE     0.00000    
 SEGMENT      9   ROW     6   COL     5   RATE     0.00000    
 SEGMENT      9   ROW     7   COL     4   RATE     0.00000    
 SEGMENT      9   ROW     7   COL     5   RATE     0.00000    
 SEGMENT      9   ROW     8   COL     4   RATE     0.00000    
 SEGMENT      9   ROW     8   COL     5   RATE     0.00000    
 
 

        GW IRRIGATION     PERIOD    5   STEP   6
 AG WELL      1   ROW     6   COL     4   RATE     0.00000    
 AG WELL      2   ROW     6   COL     5   RATE     0.00000    
 AG WELL      3   ROW     7   COL     4   RATE     0.00000    
 AG WELL      4   ROW     7   COL     5   RATE     0.00000    
 AG WELL      5   ROW     8   COL     4   RATE     0.00000    
 AG WELL      6   ROW     8   COL     5   RATE     0.00000    
 
1
  VOLUMETRIC BUDGET FOR ENTIRE MODEL AT END OF TIME STEP    6, STRESS PERIOD   5
  ------------------------------------------------------------------------------

     CUMULATIVE VOLUMES      L**3       RATES FOR THIS TIME STEP      L**3/T
     ------------------                 ------------------------

           IN:                                      IN:
           ---                                      ---
               AG WELLS  =           0.0000                 AG WELLS  =           0.0000
        DIVERSION SEGMEN =      258235.3906          DIVERSION SEGMEN =           0.0000
    TS         GW IRRIGA =           0.0000      TS         GW IRRIGA =           0.0000
    TION         SW IRRI =           0.0000      TION         SW IRRI =           0.0000
    GATION      SYSTEM L =           0.0000      GATION      SYSTEM L =           0.0000
    OSSES GW      SYSTEM =           0.0000      OSSES GW      SYSTEM =           0.0000

                TOTAL IN =      258235.3906                  TOTAL IN =           0.0000

          OUT:                                     OUT:
          ----                                     ----
               AG WELLS  =           0.0000                 AG WELLS  =           0.0000
        DIVERSION SEGMEN =           0.0000          DIVERSION SEGMEN =           0.0000
    TS         GW IRRIGA =           0.0000      TS         GW IRRIGA =           0.0000
    TION         SW IRRI =      258240.5469      TION         SW IRRI =           0.0000
    GATION      SYSTEM L =           0.0000      GATION      SYSTEM L =           0.0000
    OSSES GW      SYSTEM =           0.0000      OSSES GW      SYSTEM =           0.0000

               TOTAL OUT =      258240.5469                 TOTAL OUT =           0.0000

                IN - OUT =          -5.1562                  IN - OUT =           0.0000

     PERCENT DISCREPANCY =          -0.00         PERCENT DISCREPANCY =           0.00



1
  VOLUMETRIC BUDGET FOR ENTIRE MODEL AT END OF TIME STEP    6, STRESS PERIOD   5
  ------------------------------------------------------------------------------

     CUMULATIVE VOLUMES      L**3       RATES FOR THIS TIME STEP      L**3/T
     ------------------                 ------------------------

           IN:                                      IN:
           ---                                      ---
             STORAGE     =     5639985.5000               STORAGE     =           2.0502
       CONSTANT HEAD     =           0.0000         CONSTANT HEAD     =           0.0000
     HEAD DEP BOUNDS     =     2429027.2500       HEAD DEP BOUNDS     =           0.2857
      STREAM LEAKAGE     =   101871968.0000        STREAM LEAKAGE     =          11.3777
        UZF RECHARGE     =       73223.9531          UZF RECHARGE     =           0.0000
               GW ET     =           0.0000                 GW ET     =           0.0000
     SURFACE LEAKAGE     =           0.0000       SURFACE LEAKAGE     =           0.0000
           AG WELLS      =           0.0000             AG WELLS      =           0.0000

                TOTAL IN =   110014208.0000                  TOTAL IN =          13.7137

          OUT:                                     OUT:
          ----                                     ----
             STORAGE     =    18684440.0000               STORAGE     =           1.1744
       CONSTANT HEAD     =           0.0000         CONSTANT HEAD     =           0.0000
     HEAD DEP BOUNDS     =     2471253.0000       HEAD DEP BOUNDS     =           0.2935
      STREAM LEAKAGE     =    88846968.0000        STREAM LEAKAGE     =          12.2046
        UZF RECHARGE     =           0.0000          UZF RECHARGE     =           0.0000
               GW ET     =       15285.1494                 GW ET     =       4.0960E-02
     SURFACE LEAKAGE     =           0.0000       SURFACE LEAKAGE     =           0.0000
           AG WELLS      =           0.0000             AG WELLS      =           0.0000

               TOTAL OUT =   110017944.0000                 TOTAL OUT =          13.7134

                IN - OUT =       -3736.0000                  IN - OUT =       2.5845E-04

     PERCENT DISCREPANCY =          -0.00         PERCENT DISCREPANCY =           0.00






         TIME SUMMARY AT END OF TIME STEP    6 IN STRESS PERIOD    5
                    SECONDS     MINUTES      HOURS       DAYS        YEARS
                    -----------------------------------------------------------
   TIME STEP LENGTH  87667.      1461.1      24.352      1.0147     2.77799E-03
 STRESS PERIOD TIME 5.26000E+05  8766.7      146.11      6.0880     1.66679E-02
         TOTAL TIME 8.50239E+06 1.41707E+05  2361.8      98.407     0.26942    
1
 
 SOLVING FOR HEAD 
                                                   Max.-Head-Change                         Max.-Flux-Residual
  Residual-Control   Outer-Iter.   Inner-Iter.     Column Row Layer    Maximum-Head-Change  Column Row Layer    Maximum-Flux-Residual          L2-NORM 
          0                 1           2             2   13     1      -0.7353675508E-02       2   13    1        -0.4135961133E+00      0.7796031847E+00
          0                 2           2             2   13     1       0.6874195655E-03       2   13    1         0.3974218561E-01      0.7613949960E-01
          0                 3           1             2   13     1      -0.4422552207E-04       4   13    1        -0.2655234222E-02      0.5158490301E-02

    ------------------------------------------------
       NWT REQUIRED            3 OUTER ITERATIONS 
       AND A TOTAL OF          5 INNER ITERATIONS.
    ------------------------------------------------

 OUTPUT CONTROL FOR STRESS PERIOD    5   TIME STEP    7
    PRINT BUDGET
    SAVE BUDGET
 UBDSV1 SAVING "         STORAGE" ON UNIT 102 AT TIME STEP  7, STRESS PERIOD   5
 UBDSV2 SAVING "   CONSTANT HEAD" ON UNIT 102 AT TIME STEP  7, STRESS PERIOD   5
 UBDSV1 SAVING "FLOW RIGHT FACE " ON UNIT 102 AT TIME STEP  7, STRESS PERIOD   5
 UBDSV1 SAVING "FLOW FRONT FACE " ON UNIT 102 AT TIME STEP  7, STRESS PERIOD   5

  HEAD DEP BOUNDS   PERIOD    5   STEP     7
 BOUNDARY      1   LAYER   1   ROW    13   COL     1   RATE   -0.293381    
 BOUNDARY      2   LAYER   1   ROW    14   COL     9   RATE    0.285741    



 STREAM LISTING     PERIOD      5   STEP        7

 LAYER ROW COL. STREAM  RCH.  FLOW INTO     FLOW TO   FLOW OUT OF   OVRLND.     DIRECT     STREAM       STREAM     STREAM     STREAM   STREAMBED  STREAMBED
                SEG.NO.  NO.  STRM. RCH.    AQUIFER    STRM. RCH.    RUNOFF     PRECIP       ET          HEAD       DEPTH      WIDTH   CONDCTNC.   GRADIENT

   1    1    1     1     1    2.1000E+01  2.2592E-01   2.0774E+01  0.000E+00  0.000E+00  0.000E+00  1.09416E+03  1.115E+00  1.220E+01  5.490E-02  1.372E+00
   1    2    2     1     2    2.0774E+01  3.4916E-01   2.0425E+01  0.000E+00  0.000E+00  0.000E+00  1.08917E+03  1.110E+00  1.214E+01  8.495E-02  1.370E+00
   1    3    3     1     3    2.0425E+01  2.9709E-01   2.0128E+01  0.000E+00  0.000E+00  0.000E+00  1.08352E+03  1.105E+00  1.206E+01  7.238E-02  1.368E+00
   1    3    4     1     4    2.0128E+01  2.7299E-01   1.9855E+01  0.000E+00  0.000E+00  0.000E+00  1.07851E+03  1.100E+00  1.200E+01  6.659E-02  1.367E+00
   1    4    5     2     1    1.7855E+01  3.1056E-01   1.7544E+01  0.000E+00  0.000E+00  0.000E+00  1.07292E+03  9.816E-01  1.200E+01  7.800E-02  1.327E+00
   1    5    6     2     2    1.7544E+01  2.3834E-01   1.7306E+01  0.000E+00  0.000E+00  0.000E+00  1.06748E+03  9.724E-01  1.200E+01  6.000E-02  1.324E+00
   1    6    6     2     3    1.7306E+01  2.3787E-01   1.7068E+01  0.000E+00  0.000E+00  0.000E+00  1.06276E+03  9.644E-01  1.200E+01  6.000E-02  1.321E+00
   1    7    6     2     4    1.7068E+01  2.3738E-01   1.6831E+01  0.000E+00  0.000E+00  0.000E+00  1.05803E+03  9.564E-01  1.200E+01  6.000E-02  1.319E+00
   1    8    6     2     5    1.6831E+01  2.3690E-01   1.6594E+01  0.000E+00  0.000E+00  0.000E+00  1.05331E+03  9.483E-01  1.200E+01  6.000E-02  1.316E+00
   1    3    5     3     1    2.0000E+00  2.8252E-01   1.7175E+00  0.000E+00  0.000E+00  0.000E+00  1.07555E+03  1.909E+00  9.636E+00  7.227E-02  1.955E+00
   1    3    6     3     2    1.7175E+00  2.4905E-01   1.4684E+00  0.000E+00  0.000E+00  0.000E+00  1.07264E+03  1.727E+00  8.909E+00  6.682E-02  1.864E+00
   1    3    7     3     3    1.4684E+00  1.9718E-01   1.2712E+00  0.000E+00  0.000E+00  0.000E+00  1.06987E+03  1.555E+00  8.218E+00  5.547E-02  1.777E+00
   1    4    8     3     4    1.2712E+00  2.2567E-01   1.0456E+00  0.000E+00  0.000E+00  0.000E+00  1.06682E+03  1.364E+00  7.455E+00  6.709E-02  1.682E+00
   1    5    8     3     5    1.0456E+00  1.5790E-01   8.8768E-01  0.000E+00  0.000E+00  0.000E+00  1.06362E+03  1.164E+00  6.655E+00  4.991E-02  1.582E+00
   1    6    8     3     6    8.8768E-01  5.5980E-02   8.3170E-01  0.000E+00  0.000E+00  0.000E+00  1.06158E+03  1.036E+00  6.145E+00  1.844E-02  1.518E+00
   1    5   10     4     1    1.0000E+01  9.0919E-02   9.9091E+00  0.000E+00  0.000E+00  0.000E+00  1.07836E+03  6.368E-01  1.000E+01  2.500E-02  1.212E+00
   1    5    9     4     2    9.9091E+00  1.8158E-01   9.7275E+00  0.000E+00  0.000E+00  0.000E+00  1.07154E+03  6.315E-01  1.000E+01  5.000E-02  1.211E+00
   1    6    8     4     3    9.7275E+00  1.2689E-01   9.6006E+00  0.000E+00  0.000E+00  0.000E+00  1.06381E+03  6.256E-01  1.000E+01  3.500E-02  1.209E+00
   1    6    8     5     1    1.0432E+01  2.2686E-01   1.0205E+01  0.000E+00  0.000E+00  0.000E+00  1.05868E+03  6.790E-01  1.542E+01  6.166E-02  1.226E+00
   1    7    7     5     2    1.0205E+01  2.7894E-01   9.9265E+00  0.000E+00  0.000E+00  0.000E+00  1.05417E+03  6.732E-01  1.519E+01  7.594E-02  1.224E+00
   1    8    7     5     3    9.9265E+00  1.9221E-01   9.7343E+00  0.000E+00  0.000E+00  0.000E+00  1.04992E+03  6.676E-01  1.497E+01  5.241E-02  1.223E+00
   1    8    6     5     4    9.7343E+00  1.3577E-01   9.5985E+00  0.000E+00  0.000E+00  0.000E+00  1.04691E+03  6.637E-01  1.482E+01  3.706E-02  1.221E+00
   1    9    6     6     1    2.6192E+01  2.5512E-01   2.5937E+01  0.000E+00  0.000E+00  0.000E+00  1.04398E+03  1.252E+00  1.200E+01  6.000E-02  1.417E+00
   1   10    7     6     2    2.5937E+01  2.5468E-01   2.5683E+01  0.000E+00  0.000E+00  0.000E+00  1.03943E+03  1.245E+00  1.200E+01  6.000E-02  1.415E+00
   1   11    7     6     3    2.5683E+01  2.5424E-01   2.5428E+01  0.000E+00  0.000E+00  0.000E+00  1.03487E+03  1.237E+00  1.200E+01  6.000E-02  1.412E+00
   1   12    7     6     4    2.5428E+01  2.5379E-01   2.5175E+01  0.000E+00  0.000E+00  0.000E+00  1.03032E+03  1.230E+00  1.200E+01  6.000E-02  1.410E+00
   1   13    7     6     5    2.5175E+01  1.9848E-05   2.5175E+01  0.000E+00  0.000E+00  0.000E+00  1.02714E+03  1.226E+00  1.200E+01  2.400E-02  2.757E-04
   1   14    9     7     1    1.5000E+02  1.3356E+00   1.4866E+02  0.000E+00  0.000E+00  0.000E+00  1.03987E+03  2.288E+00  5.529E+01  5.593E-01  7.960E-01
   1   13    8     7     2    1.4866E+02  1.8260E+00   1.4684E+02  0.000E+00  0.000E+00  0.000E+00  1.03478E+03  2.279E+00  5.526E+01  6.148E-01  9.901E-01
   1   13    7     7     3    1.4684E+02  1.4272E+00   1.4541E+02  0.000E+00  0.000E+00  0.000E+00  1.02969E+03  2.271E+00  5.522E+01  5.585E-01  8.519E-01
   1   13    6     8     1    1.7059E+02  8.5949E-01   1.6973E+02  0.000E+00  0.000E+00  0.000E+00  1.02483E+03  2.953E+00  4.282E+01  4.364E-01  6.565E-01
   1   13    5     8     2    1.6973E+02  1.0451E-01   1.6962E+02  0.000E+00  0.000E+00  0.000E+00  1.01858E+03  2.950E+00  4.278E+01  4.359E-01  7.992E-02
   1   13    4     8     3    1.6962E+02 -2.9183E+00   1.7254E+02  0.000E+00  0.000E+00  0.000E+00  1.01233E+03  2.959E+00  4.291E+01  4.373E+00 -2.225E-01
   1   13    3     8     4    1.7254E+02 -4.0329E+00   1.7657E+02  0.000E+00  0.000E+00  0.000E+00  1.00611E+03  2.982E+00  4.323E+01  4.406E+00 -3.051E-01
   1   13    2     8     5    1.7657E+02 -2.9519E+00   1.7952E+02  0.000E+00  0.000E+00  0.000E+00  9.99879E+02  3.004E+00  4.356E+01  4.439E+00 -2.217E-01
   1   13    1     8     6    1.7952E+02 -2.2101E+00   1.8174E+02  0.000E+00  0.000E+00  0.000E+00  9.94895E+02  3.020E+00  4.379E+01  2.678E+00 -2.751E-01
   1    8    6     9     1    0.0000E+00  0.0000E+00   0.0000E+00  0.000E+00  0.000E+00  0.000E+00  1.07875E+03  0.000E+00  4.000E+00  0.000E+00  1.000E+00
   1    8    5     9     2    0.0000E+00  0.0000E+00   0.0000E+00  0.000E+00  0.000E+00  0.000E+00  1.07825E+03  0.000E+00  4.000E+00  0.000E+00  1.000E+00



 UBDSV3 SAVING "           GW ET" ON UNIT  61 AT TIME STEP  7, STRESS PERIOD   5
 UBDSV3 SAVING "    UZF RECHARGE" ON UNIT  61 AT TIME STEP  7, STRESS PERIOD   5
 UBDSV3 SAVING " SURFACE LEAKAGE" ON UNIT  61 AT TIME STEP  7, STRESS PERIOD   5
 UBDSV3 SAVING "       HORT+DUNN" ON UNIT  61 AT TIME STEP  7, STRESS PERIOD   5
 UBDSV3 SAVING "  STORAGE CHANGE" ON UNIT  61 AT TIME STEP  7, STRESS PERIOD   5


UNSATURATED ZONE PACKAGE VOLUMETRIC BUDGET FOR  TIME STEP     7 STRESS PERIOD    5
  ------------------------------------------------------------------------------



     CUMULATIVE VOLUMES      L**3       RATES FOR THIS TIME STEP      L**3/T
     ------------------                 ------------------------

           IN:                                      IN:
           ---                                      ---
        INFILTRATION =    37811373.9502          INFILTRATION =           4.4075

          OUT:                                     OUT:
          ----                                     ----
              UZF ET =    17753956.4868                UZF ET =          13.1965
        UZF RECHARGE =       73224.0000          UZF RECHARGE =       0.0000E+00

            IN - OUT =    19984193.4634              IN - OUT =          -8.7890

          STORAGE:                                 STORAGE:
          --------                                 --------
      STORAGE CHANGE =    19984193.1386        STORAGE CHANGE =          -8.7890

 PERCENT DISCREPANCY IS DIFFERENCE BETWEEN IN-OUT MINUS CHANGE IN STORAGE
 DIVIDED BY THE AVERAGE OF IN AND OUT TIMES 100

 PERCENT DISCREPANCY =           0.00     PERCENT DISCREPANCY =           0.00






 

            AG WELLS      PERIOD    5   STEP   7
 AG WELL      1   LAYER   1   ROW     6   COL     4   RATE     0.00000    
 AG WELL      2   LAYER   1   ROW     6   COL     5   RATE     0.00000    
 AG WELL      3   LAYER   1   ROW     7   COL     4   RATE     0.00000    
 AG WELL      4   LAYER   1   ROW     7   COL     5   RATE     0.00000    
 AG WELL      5   LAYER   1   ROW     8   COL     4   RATE     0.00000    
 AG WELL      6   LAYER   1   ROW     8   COL     5   RATE     0.00000    
 
 

   DIVERSION SEGMENTS     PERIOD    5   STEP   7
 SEGMENT      9   RATE     0.00000    
 
 

        SW IRRIGATION     PERIOD    5   STEP   7
 SEGMENT      9   ROW     6   COL     4   RATE     0.00000    
 SEGMENT      9   ROW     6   COL     5   RATE     0.00000    
 SEGMENT      9   ROW     7   COL     4   RATE     0.00000    
 SEGMENT      9   ROW     7   COL     5   RATE     0.00000    
 SEGMENT      9   ROW     8   COL     4   RATE     0.00000    
 SEGMENT      9   ROW     8   COL     5   RATE     0.00000    
 
 

        GW IRRIGATION     PERIOD    5   STEP   7
 AG WELL      1   ROW     6   COL     4   RATE     0.00000    
 AG WELL      2   ROW     6   COL     5   RATE     0.00000    
 AG WELL      3   ROW     7   COL     4   RATE     0.00000    
 AG WELL      4   ROW     7   COL     5   RATE     0.00000    
 AG WELL      5   ROW     8   COL     4   RATE     0.00000    
 AG WELL      6   ROW     8   COL     5   RATE     0.00000    
 
1
  VOLUMETRIC BUDGET FOR ENTIRE MODEL AT END OF TIME STEP    7, STRESS PERIOD   5
  ------------------------------------------------------------------------------

     CUMULATIVE VOLUMES      L**3       RATES FOR THIS TIME STEP      L**3/T
     ------------------                 ------------------------

           IN:                                      IN:
           ---                                      ---
               AG WELLS  =           0.0000                 AG WELLS  =           0.0000
        DIVERSION SEGMEN =      258235.3906          DIVERSION SEGMEN =           0.0000
    TS         GW IRRIGA =           0.0000      TS         GW IRRIGA =           0.0000
    TION         SW IRRI =           0.0000      TION         SW IRRI =           0.0000
    GATION      SYSTEM L =           0.0000      GATION      SYSTEM L =           0.0000
    OSSES GW      SYSTEM =           0.0000      OSSES GW      SYSTEM =           0.0000

                TOTAL IN =      258235.3906                  TOTAL IN =           0.0000

          OUT:                                     OUT:
          ----                                     ----
               AG WELLS  =           0.0000                 AG WELLS  =           0.0000
        DIVERSION SEGMEN =           0.0000          DIVERSION SEGMEN =           0.0000
    TS         GW IRRIGA =           0.0000      TS         GW IRRIGA =           0.0000
    TION         SW IRRI =      258240.5469      TION         SW IRRI =           0.0000
    GATION      SYSTEM L =           0.0000      GATION      SYSTEM L =           0.0000
    OSSES GW      SYSTEM =           0.0000      OSSES GW      SYSTEM =           0.0000

               TOTAL OUT =      258240.5469                 TOTAL OUT =           0.0000

                IN - OUT =          -5.1562                  IN - OUT =           0.0000

     PERCENT DISCREPANCY =          -0.00         PERCENT DISCREPANCY =           0.00



1
  VOLUMETRIC BUDGET FOR ENTIRE MODEL AT END OF TIME STEP    7, STRESS PERIOD   5
  ------------------------------------------------------------------------------

     CUMULATIVE VOLUMES      L**3       RATES FOR THIS TIME STEP      L**3/T
     ------------------                 ------------------------

           IN:                                      IN:
           ---                                      ---
             STORAGE     =     5808298.0000               STORAGE     =           1.9199
       CONSTANT HEAD     =           0.0000         CONSTANT HEAD     =           0.0000
     HEAD DEP BOUNDS     =     2454077.2500       HEAD DEP BOUNDS     =           0.2857
      STREAM LEAKAGE     =   102869464.0000        STREAM LEAKAGE     =          11.3783
        UZF RECHARGE     =       73223.9531          UZF RECHARGE     =           0.0000
               GW ET     =           0.0000                 GW ET     =           0.0000
     SURFACE LEAKAGE     =           0.0000       SURFACE LEAKAGE     =           0.0000
           AG WELLS      =           0.0000             AG WELLS      =           0.0000

                TOTAL IN =   111205064.0000                  TOTAL IN =          13.5839

          OUT:                                     OUT:
          ----                                     ----
             STORAGE     =    18785268.0000               STORAGE     =           1.1501
       CONSTANT HEAD     =           0.0000         CONSTANT HEAD     =           0.0000
     HEAD DEP BOUNDS     =     2496972.7500       HEAD DEP BOUNDS     =           0.2934
      STREAM LEAKAGE     =    89908896.0000        STREAM LEAKAGE     =          12.1132
        UZF RECHARGE     =           0.0000          UZF RECHARGE     =           0.0000
               GW ET     =       17650.6035                 GW ET     =       2.6982E-02
     SURFACE LEAKAGE     =           0.0000       SURFACE LEAKAGE     =           0.0000
           AG WELLS      =           0.0000             AG WELLS      =           0.0000

               TOTAL OUT =   111208784.0000                 TOTAL OUT =          13.5837

                IN - OUT =       -3720.0000                  IN - OUT =       2.2793E-04

     PERCENT DISCREPANCY =          -0.00         PERCENT DISCREPANCY =           0.00






         TIME SUMMARY AT END OF TIME STEP    7 IN STRESS PERIOD    5
                    SECONDS     MINUTES      HOURS       DAYS        YEARS
                    -----------------------------------------------------------
   TIME STEP LENGTH  87667.      1461.1      24.352      1.0147     2.77799E-03
 STRESS PERIOD TIME 6.13667E+05  10228.      170.46      7.1026     1.94459E-02
         TOTAL TIME 8.59006E+06 1.43168E+05  2386.1      99.422     0.27220    
1
 
 SOLVING FOR HEAD 
                                                   Max.-Head-Change                         Max.-Flux-Residual
  Residual-Control   Outer-Iter.   Inner-Iter.     Column Row Layer    Maximum-Head-Change  Column Row Layer    Maximum-Flux-Residual          L2-NORM 
          0                 1           2             2   13     1      -0.6809320918E-02       2   13    1        -0.3829948011E+00      0.7195310932E+00
          0                 2           2             2   13     1       0.6370741274E-03       2   13    1         0.3683353385E-01      0.6805022976E-01
          0                 3           1             2   13     1      -0.4115205622E-04       2   13    1        -0.2445432852E-02      0.4614076467E-02

    ------------------------------------------------
       NWT REQUIRED            3 OUTER ITERATIONS 
       AND A TOTAL OF          5 INNER ITERATIONS.
    ------------------------------------------------

 OUTPUT CONTROL FOR STRESS PERIOD    5   TIME STEP    8
    PRINT BUDGET
    SAVE BUDGET
 UBDSV1 SAVING "         STORAGE" ON UNIT 102 AT TIME STEP  8, STRESS PERIOD   5
 UBDSV2 SAVING "   CONSTANT HEAD" ON UNIT 102 AT TIME STEP  8, STRESS PERIOD   5
 UBDSV1 SAVING "FLOW RIGHT FACE " ON UNIT 102 AT TIME STEP  8, STRESS PERIOD   5
 UBDSV1 SAVING "FLOW FRONT FACE " ON UNIT 102 AT TIME STEP  8, STRESS PERIOD   5

  HEAD DEP BOUNDS   PERIOD    5   STEP     8
 BOUNDARY      1   LAYER   1   ROW    13   COL     1   RATE   -0.293225    
 BOUNDARY      2   LAYER   1   ROW    14   COL     9   RATE    0.285742    



 STREAM LISTING     PERIOD      5   STEP        8

 LAYER ROW COL. STREAM  RCH.  FLOW INTO     FLOW TO   FLOW OUT OF   OVRLND.     DIRECT     STREAM       STREAM     STREAM     STREAM   STREAMBED  STREAMBED
                SEG.NO.  NO.  STRM. RCH.    AQUIFER    STRM. RCH.    RUNOFF     PRECIP       ET          HEAD       DEPTH      WIDTH   CONDCTNC.   GRADIENT

   1    1    1     1     1    2.1000E+01  2.2592E-01   2.0774E+01  0.000E+00  0.000E+00  0.000E+00  1.09416E+03  1.115E+00  1.220E+01  5.490E-02  1.372E+00
   1    2    2     1     2    2.0774E+01  3.4916E-01   2.0425E+01  0.000E+00  0.000E+00  0.000E+00  1.08917E+03  1.110E+00  1.214E+01  8.495E-02  1.370E+00
   1    3    3     1     3    2.0425E+01  2.9709E-01   2.0128E+01  0.000E+00  0.000E+00  0.000E+00  1.08352E+03  1.105E+00  1.206E+01  7.238E-02  1.368E+00
   1    3    4     1     4    2.0128E+01  2.7299E-01   1.9855E+01  0.000E+00  0.000E+00  0.000E+00  1.07851E+03  1.100E+00  1.200E+01  6.659E-02  1.367E+00
   1    4    5     2     1    1.7855E+01  3.1056E-01   1.7544E+01  0.000E+00  0.000E+00  0.000E+00  1.07292E+03  9.816E-01  1.200E+01  7.800E-02  1.327E+00
   1    5    6     2     2    1.7544E+01  2.3834E-01   1.7306E+01  0.000E+00  0.000E+00  0.000E+00  1.06748E+03  9.724E-01  1.200E+01  6.000E-02  1.324E+00
   1    6    6     2     3    1.7306E+01  2.3787E-01   1.7068E+01  0.000E+00  0.000E+00  0.000E+00  1.06276E+03  9.644E-01  1.200E+01  6.000E-02  1.321E+00
   1    7    6     2     4    1.7068E+01  2.3738E-01   1.6831E+01  0.000E+00  0.000E+00  0.000E+00  1.05803E+03  9.564E-01  1.200E+01  6.000E-02  1.319E+00
   1    8    6     2     5    1.6831E+01  2.3690E-01   1.6594E+01  0.000E+00  0.000E+00  0.000E+00  1.05331E+03  9.483E-01  1.200E+01  6.000E-02  1.316E+00
   1    3    5     3     1    2.0000E+00  2.8252E-01   1.7175E+00  0.000E+00  0.000E+00  0.000E+00  1.07555E+03  1.909E+00  9.636E+00  7.227E-02  1.955E+00
   1    3    6     3     2    1.7175E+00  2.4905E-01   1.4684E+00  0.000E+00  0.000E+00  0.000E+00  1.07264E+03  1.727E+00  8.909E+00  6.682E-02  1.864E+00
   1    3    7     3     3    1.4684E+00  1.9718E-01   1.2712E+00  0.000E+00  0.000E+00  0.000E+00  1.06987E+03  1.555E+00  8.218E+00  5.547E-02  1.777E+00
   1    4    8     3     4    1.2712E+00  2.2567E-01   1.0456E+00  0.000E+00  0.000E+00  0.000E+00  1.06682E+03  1.364E+00  7.455E+00  6.709E-02  1.682E+00
   1    5    8     3     5    1.0456E+00  1.5790E-01   8.8768E-01  0.000E+00  0.000E+00  0.000E+00  1.06362E+03  1.164E+00  6.655E+00  4.991E-02  1.582E+00
   1    6    8     3     6    8.8768E-01  5.5980E-02   8.3170E-01  0.000E+00  0.000E+00  0.000E+00  1.06158E+03  1.036E+00  6.145E+00  1.844E-02  1.518E+00
   1    5   10     4     1    1.0000E+01  9.0919E-02   9.9091E+00  0.000E+00  0.000E+00  0.000E+00  1.07836E+03  6.368E-01  1.000E+01  2.500E-02  1.212E+00
   1    5    9     4     2    9.9091E+00  1.8158E-01   9.7275E+00  0.000E+00  0.000E+00  0.000E+00  1.07154E+03  6.315E-01  1.000E+01  5.000E-02  1.211E+00
   1    6    8     4     3    9.7275E+00  1.2689E-01   9.6006E+00  0.000E+00  0.000E+00  0.000E+00  1.06381E+03  6.256E-01  1.000E+01  3.500E-02  1.209E+00
   1    6    8     5     1    1.0432E+01  2.2686E-01   1.0205E+01  0.000E+00  0.000E+00  0.000E+00  1.05868E+03  6.790E-01  1.542E+01  6.166E-02  1.226E+00
   1    7    7     5     2    1.0205E+01  2.7894E-01   9.9265E+00  0.000E+00  0.000E+00  0.000E+00  1.05417E+03  6.732E-01  1.519E+01  7.594E-02  1.224E+00
   1    8    7     5     3    9.9265E+00  1.9221E-01   9.7343E+00  0.000E+00  0.000E+00  0.000E+00  1.04992E+03  6.676E-01  1.497E+01  5.241E-02  1.223E+00
   1    8    6     5     4    9.7343E+00  1.3577E-01   9.5985E+00  0.000E+00  0.000E+00  0.000E+00  1.04691E+03  6.637E-01  1.482E+01  3.706E-02  1.221E+00
   1    9    6     6     1    2.6192E+01  2.5512E-01   2.5937E+01  0.000E+00  0.000E+00  0.000E+00  1.04398E+03  1.252E+00  1.200E+01  6.000E-02  1.417E+00
   1   10    7     6     2    2.5937E+01  2.5468E-01   2.5683E+01  0.000E+00  0.000E+00  0.000E+00  1.03943E+03  1.245E+00  1.200E+01  6.000E-02  1.415E+00
   1   11    7     6     3    2.5683E+01  2.5424E-01   2.5428E+01  0.000E+00  0.000E+00  0.000E+00  1.03487E+03  1.237E+00  1.200E+01  6.000E-02  1.412E+00
   1   12    7     6     4    2.5428E+01  2.5379E-01   2.5175E+01  0.000E+00  0.000E+00  0.000E+00  1.03032E+03  1.230E+00  1.200E+01  6.000E-02  1.410E+00
   1   13    7     6     5    2.5175E+01  1.2986E-05   2.5175E+01  0.000E+00  0.000E+00  0.000E+00  1.02714E+03  1.226E+00  1.200E+01  2.400E-02  1.804E-04
   1   14    9     7     1    1.5000E+02  1.3356E+00   1.4866E+02  0.000E+00  0.000E+00  0.000E+00  1.03987E+03  2.288E+00  5.529E+01  5.593E-01  7.960E-01
   1   13    8     7     2    1.4866E+02  1.8259E+00   1.4684E+02  0.000E+00  0.000E+00  0.000E+00  1.03478E+03  2.279E+00  5.526E+01  6.148E-01  9.900E-01
   1   13    7     7     3    1.4684E+02  1.4270E+00   1.4541E+02  0.000E+00  0.000E+00  0.000E+00  1.02969E+03  2.271E+00  5.522E+01  5.585E-01  8.518E-01
   1   13    6     8     1    1.7059E+02  8.5991E-01   1.6973E+02  0.000E+00  0.000E+00  0.000E+00  1.02483E+03  2.953E+00  4.282E+01  4.364E-01  6.569E-01
   1   13    5     8     2    1.6973E+02  1.0493E-01   1.6962E+02  0.000E+00  0.000E+00  0.000E+00  1.01858E+03  2.950E+00  4.278E+01  4.359E-01  8.024E-02
   1   13    4     8     3    1.6962E+02 -2.8947E+00   1.7252E+02  0.000E+00  0.000E+00  0.000E+00  1.01233E+03  2.959E+00  4.291E+01  4.372E+00 -2.207E-01
   1   13    3     8     4    1.7252E+02 -4.0090E+00   1.7652E+02  0.000E+00  0.000E+00  0.000E+00  1.00611E+03  2.981E+00  4.323E+01  4.405E+00 -3.033E-01
   1   13    2     8     5    1.7652E+02 -2.9257E+00   1.7945E+02  0.000E+00  0.000E+00  0.000E+00  9.99878E+02  3.003E+00  4.355E+01  4.438E+00 -2.197E-01
   1   13    1     8     6    1.7945E+02 -2.2001E+00   1.8165E+02  0.000E+00  0.000E+00  0.000E+00  9.94895E+02  3.020E+00  4.378E+01  2.677E+00 -2.739E-01
   1    8    6     9     1    0.0000E+00  0.0000E+00   0.0000E+00  0.000E+00  0.000E+00  0.000E+00  1.07875E+03  0.000E+00  4.000E+00  0.000E+00  1.000E+00
   1    8    5     9     2    0.0000E+00  0.0000E+00   0.0000E+00  0.000E+00  0.000E+00  0.000E+00  1.07825E+03  0.000E+00  4.000E+00  0.000E+00  1.000E+00



 UBDSV3 SAVING "           GW ET" ON UNIT  61 AT TIME STEP  8, STRESS PERIOD   5
 UBDSV3 SAVING "    UZF RECHARGE" ON UNIT  61 AT TIME STEP  8, STRESS PERIOD   5
 UBDSV3 SAVING " SURFACE LEAKAGE" ON UNIT  61 AT TIME STEP  8, STRESS PERIOD   5
 UBDSV3 SAVING "       HORT+DUNN" ON UNIT  61 AT TIME STEP  8, STRESS PERIOD   5
 UBDSV3 SAVING "  STORAGE CHANGE" ON UNIT  61 AT TIME STEP  8, STRESS PERIOD   5


UNSATURATED ZONE PACKAGE VOLUMETRIC BUDGET FOR  TIME STEP     8 STRESS PERIOD    5
  ------------------------------------------------------------------------------



     CUMULATIVE VOLUMES      L**3       RATES FOR THIS TIME STEP      L**3/T
     ------------------                 ------------------------

           IN:                                      IN:
           ---                                      ---
        INFILTRATION =    38197764.7688          INFILTRATION =           4.4075

          OUT:                                     OUT:
          ----                                     ----
              UZF ET =    18914170.3533                UZF ET =          13.2344
        UZF RECHARGE =       73224.0000          UZF RECHARGE =       0.0000E+00

            IN - OUT =    19210370.4155              IN - OUT =          -8.8269

          STORAGE:                                 STORAGE:
          --------                                 --------
      STORAGE CHANGE =    19210370.1534        STORAGE CHANGE =          -8.8269

 PERCENT DISCREPANCY IS DIFFERENCE BETWEEN IN-OUT MINUS CHANGE IN STORAGE
 DIVIDED BY THE AVERAGE OF IN AND OUT TIMES 100

 PERCENT DISCREPANCY =           0.00     PERCENT DISCREPANCY =           0.00






 

            AG WELLS      PERIOD    5   STEP   8
 AG WELL      1   LAYER   1   ROW     6   COL     4   RATE     0.00000    
 AG WELL      2   LAYER   1   ROW     6   COL     5   RATE     0.00000    
 AG WELL      3   LAYER   1   ROW     7   COL     4   RATE     0.00000    
 AG WELL      4   LAYER   1   ROW     7   COL     5   RATE     0.00000    
 AG WELL      5   LAYER   1   ROW     8   COL     4   RATE     0.00000    
 AG WELL      6   LAYER   1   ROW     8   COL     5   RATE     0.00000    
 
 

   DIVERSION SEGMENTS     PERIOD    5   STEP   8
 SEGMENT      9   RATE     0.00000    
 
 

        SW IRRIGATION     PERIOD    5   STEP   8
 SEGMENT      9   ROW     6   COL     4   RATE     0.00000    
 SEGMENT      9   ROW     6   COL     5   RATE     0.00000    
 SEGMENT      9   ROW     7   COL     4   RATE     0.00000    
 SEGMENT      9   ROW     7   COL     5   RATE     0.00000    
 SEGMENT      9   ROW     8   COL     4   RATE     0.00000    
 SEGMENT      9   ROW     8   COL     5   RATE     0.00000    
 
 

        GW IRRIGATION     PERIOD    5   STEP   8
 AG WELL      1   ROW     6   COL     4   RATE     0.00000    
 AG WELL      2   ROW     6   COL     5   RATE     0.00000    
 AG WELL      3   ROW     7   COL     4   RATE     0.00000    
 AG WELL      4   ROW     7   COL     5   RATE     0.00000    
 AG WELL      5   ROW     8   COL     4   RATE     0.00000    
 AG WELL      6   ROW     8   COL     5   RATE     0.00000    
 
1
  VOLUMETRIC BUDGET FOR ENTIRE MODEL AT END OF TIME STEP    8, STRESS PERIOD   5
  ------------------------------------------------------------------------------

     CUMULATIVE VOLUMES      L**3       RATES FOR THIS TIME STEP      L**3/T
     ------------------                 ------------------------

           IN:                                      IN:
           ---                                      ---
               AG WELLS  =           0.0000                 AG WELLS  =           0.0000
        DIVERSION SEGMEN =      258235.3906          DIVERSION SEGMEN =           0.0000
    TS         GW IRRIGA =           0.0000      TS         GW IRRIGA =           0.0000
    TION         SW IRRI =           0.0000      TION         SW IRRI =           0.0000
    GATION      SYSTEM L =           0.0000      GATION      SYSTEM L =           0.0000
    OSSES GW      SYSTEM =           0.0000      OSSES GW      SYSTEM =           0.0000

                TOTAL IN =      258235.3906                  TOTAL IN =           0.0000

          OUT:                                     OUT:
          ----                                     ----
               AG WELLS  =           0.0000                 AG WELLS  =           0.0000
        DIVERSION SEGMEN =           0.0000          DIVERSION SEGMEN =           0.0000
    TS         GW IRRIGA =           0.0000      TS         GW IRRIGA =           0.0000
    TION         SW IRRI =      258240.5469      TION         SW IRRI =           0.0000
    GATION      SYSTEM L =           0.0000      GATION      SYSTEM L =           0.0000
    OSSES GW      SYSTEM =           0.0000      OSSES GW      SYSTEM =           0.0000

               TOTAL OUT =      258240.5469                 TOTAL OUT =           0.0000

                IN - OUT =          -5.1562                  IN - OUT =           0.0000

     PERCENT DISCREPANCY =          -0.00         PERCENT DISCREPANCY =           0.00



1
  VOLUMETRIC BUDGET FOR ENTIRE MODEL AT END OF TIME STEP    8, STRESS PERIOD   5
  ------------------------------------------------------------------------------

     CUMULATIVE VOLUMES      L**3       RATES FOR THIS TIME STEP      L**3/T
     ------------------                 ------------------------

           IN:                                      IN:
           ---                                      ---
             STORAGE     =     5966604.0000               STORAGE     =           1.8058
       CONSTANT HEAD     =           0.0000         CONSTANT HEAD     =           0.0000
     HEAD DEP BOUNDS     =     2479127.2500       HEAD DEP BOUNDS     =           0.2857
      STREAM LEAKAGE     =   103867008.0000        STREAM LEAKAGE     =          11.3788
        UZF RECHARGE     =       73223.9531          UZF RECHARGE     =           0.0000
               GW ET     =           0.0000                 GW ET     =           0.0000
     SURFACE LEAKAGE     =           0.0000       SURFACE LEAKAGE     =           0.0000
           AG WELLS      =           0.0000             AG WELLS      =           0.0000

                TOTAL IN =   112385960.0000                  TOTAL IN =          13.4704

          OUT:                                     OUT:
          ----                                     ----
             STORAGE     =    18884222.0000               STORAGE     =           1.1287
       CONSTANT HEAD     =           0.0000         CONSTANT HEAD     =           0.0000
     HEAD DEP BOUNDS     =     2522678.7500       HEAD DEP BOUNDS     =           0.2932
      STREAM LEAKAGE     =    90963480.0000        STREAM LEAKAGE     =          12.0295
        UZF RECHARGE     =           0.0000          UZF RECHARGE     =           0.0000
               GW ET     =       19292.7578                 GW ET     =       1.8732E-02
     SURFACE LEAKAGE     =           0.0000       SURFACE LEAKAGE     =           0.0000
           AG WELLS      =           0.0000             AG WELLS      =           0.0000

               TOTAL OUT =   112389680.0000                 TOTAL OUT =          13.4702

                IN - OUT =       -3720.0000                  IN - OUT =       1.8692E-04

     PERCENT DISCREPANCY =          -0.00         PERCENT DISCREPANCY =           0.00






         TIME SUMMARY AT END OF TIME STEP    8 IN STRESS PERIOD    5
                    SECONDS     MINUTES      HOURS       DAYS        YEARS
                    -----------------------------------------------------------
   TIME STEP LENGTH  87667.      1461.1      24.352      1.0147     2.77799E-03
 STRESS PERIOD TIME 7.01333E+05  11689.      194.81      8.1173     2.22239E-02
         TOTAL TIME 8.67773E+06 1.44629E+05  2410.5      100.44     0.27498    
1
 
 SOLVING FOR HEAD 
                                                   Max.-Head-Change                         Max.-Flux-Residual
  Residual-Control   Outer-Iter.   Inner-Iter.     Column Row Layer    Maximum-Head-Change  Column Row Layer    Maximum-Flux-Residual          L2-NORM 
          0                 1           2             2   13     1      -0.6304736127E-02       2   13    1        -0.3546235929E+00      0.6676271969E+00
          0                 2           2             4   13     1      -0.5648918576E-03       4   13    1        -0.3241175191E-01      0.5683640934E-01
          0                 3           2             7   13     1      -0.3431529699E-03       7   13    1        -0.1912278927E-01      0.1941219867E-01
          0                 4           1             4   13     1      -0.4327374844E-04       4   13    1        -0.2620819934E-02      0.4521540458E-02

    ------------------------------------------------
       NWT REQUIRED            4 OUTER ITERATIONS 
       AND A TOTAL OF          7 INNER ITERATIONS.
    ------------------------------------------------

 OUTPUT CONTROL FOR STRESS PERIOD    5   TIME STEP    9
    PRINT BUDGET
    SAVE BUDGET
 UBDSV1 SAVING "         STORAGE" ON UNIT 102 AT TIME STEP  9, STRESS PERIOD   5
 UBDSV2 SAVING "   CONSTANT HEAD" ON UNIT 102 AT TIME STEP  9, STRESS PERIOD   5
 UBDSV1 SAVING "FLOW RIGHT FACE " ON UNIT 102 AT TIME STEP  9, STRESS PERIOD   5
 UBDSV1 SAVING "FLOW FRONT FACE " ON UNIT 102 AT TIME STEP  9, STRESS PERIOD   5

  HEAD DEP BOUNDS   PERIOD    5   STEP     9
 BOUNDARY      1   LAYER   1   ROW    13   COL     1   RATE   -0.293053    
 BOUNDARY      2   LAYER   1   ROW    14   COL     9   RATE    0.285742    



 STREAM LISTING     PERIOD      5   STEP        9

 LAYER ROW COL. STREAM  RCH.  FLOW INTO     FLOW TO   FLOW OUT OF   OVRLND.     DIRECT     STREAM       STREAM     STREAM     STREAM   STREAMBED  STREAMBED
                SEG.NO.  NO.  STRM. RCH.    AQUIFER    STRM. RCH.    RUNOFF     PRECIP       ET          HEAD       DEPTH      WIDTH   CONDCTNC.   GRADIENT

   1    1    1     1     1    2.1000E+01  2.2592E-01   2.0774E+01  0.000E+00  0.000E+00  0.000E+00  1.09416E+03  1.115E+00  1.220E+01  5.490E-02  1.372E+00
   1    2    2     1     2    2.0774E+01  3.4916E-01   2.0425E+01  0.000E+00  0.000E+00  0.000E+00  1.08917E+03  1.110E+00  1.214E+01  8.495E-02  1.370E+00
   1    3    3     1     3    2.0425E+01  2.9709E-01   2.0128E+01  0.000E+00  0.000E+00  0.000E+00  1.08352E+03  1.105E+00  1.206E+01  7.238E-02  1.368E+00
   1    3    4     1     4    2.0128E+01  2.7299E-01   1.9855E+01  0.000E+00  0.000E+00  0.000E+00  1.07851E+03  1.100E+00  1.200E+01  6.659E-02  1.367E+00
   1    4    5     2     1    1.7855E+01  3.1056E-01   1.7544E+01  0.000E+00  0.000E+00  0.000E+00  1.07292E+03  9.816E-01  1.200E+01  7.800E-02  1.327E+00
   1    5    6     2     2    1.7544E+01  2.3834E-01   1.7306E+01  0.000E+00  0.000E+00  0.000E+00  1.06748E+03  9.724E-01  1.200E+01  6.000E-02  1.324E+00
   1    6    6     2     3    1.7306E+01  2.3787E-01   1.7068E+01  0.000E+00  0.000E+00  0.000E+00  1.06276E+03  9.644E-01  1.200E+01  6.000E-02  1.321E+00
   1    7    6     2     4    1.7068E+01  2.3738E-01   1.6831E+01  0.000E+00  0.000E+00  0.000E+00  1.05803E+03  9.564E-01  1.200E+01  6.000E-02  1.319E+00
   1    8    6     2     5    1.6831E+01  2.3690E-01   1.6594E+01  0.000E+00  0.000E+00  0.000E+00  1.05331E+03  9.483E-01  1.200E+01  6.000E-02  1.316E+00
   1    3    5     3     1    2.0000E+00  2.8252E-01   1.7175E+00  0.000E+00  0.000E+00  0.000E+00  1.07555E+03  1.909E+00  9.636E+00  7.227E-02  1.955E+00
   1    3    6     3     2    1.7175E+00  2.4905E-01   1.4684E+00  0.000E+00  0.000E+00  0.000E+00  1.07264E+03  1.727E+00  8.909E+00  6.682E-02  1.864E+00
   1    3    7     3     3    1.4684E+00  1.9718E-01   1.2712E+00  0.000E+00  0.000E+00  0.000E+00  1.06987E+03  1.555E+00  8.218E+00  5.547E-02  1.777E+00
   1    4    8     3     4    1.2712E+00  2.2567E-01   1.0456E+00  0.000E+00  0.000E+00  0.000E+00  1.06682E+03  1.364E+00  7.455E+00  6.709E-02  1.682E+00
   1    5    8     3     5    1.0456E+00  1.5790E-01   8.8768E-01  0.000E+00  0.000E+00  0.000E+00  1.06362E+03  1.164E+00  6.655E+00  4.991E-02  1.582E+00
   1    6    8     3     6    8.8768E-01  5.5980E-02   8.3170E-01  0.000E+00  0.000E+00  0.000E+00  1.06158E+03  1.036E+00  6.145E+00  1.844E-02  1.518E+00
   1    5   10     4     1    1.0000E+01  9.0919E-02   9.9091E+00  0.000E+00  0.000E+00  0.000E+00  1.07836E+03  6.368E-01  1.000E+01  2.500E-02  1.212E+00
   1    5    9     4     2    9.9091E+00  1.8158E-01   9.7275E+00  0.000E+00  0.000E+00  0.000E+00  1.07154E+03  6.315E-01  1.000E+01  5.000E-02  1.211E+00
   1    6    8     4     3    9.7275E+00  1.2689E-01   9.6006E+00  0.000E+00  0.000E+00  0.000E+00  1.06381E+03  6.256E-01  1.000E+01  3.500E-02  1.209E+00
   1    6    8     5     1    1.0432E+01  2.2686E-01   1.0205E+01  0.000E+00  0.000E+00  0.000E+00  1.05868E+03  6.790E-01  1.542E+01  6.166E-02  1.226E+00
   1    7    7     5     2    1.0205E+01  2.7894E-01   9.9265E+00  0.000E+00  0.000E+00  0.000E+00  1.05417E+03  6.732E-01  1.519E+01  7.594E-02  1.224E+00
   1    8    7     5     3    9.9265E+00  1.9221E-01   9.7343E+00  0.000E+00  0.000E+00  0.000E+00  1.04992E+03  6.676E-01  1.497E+01  5.241E-02  1.223E+00
   1    8    6     5     4    9.7343E+00  1.3577E-01   9.5985E+00  0.000E+00  0.000E+00  0.000E+00  1.04691E+03  6.637E-01  1.482E+01  3.706E-02  1.221E+00
   1    9    6     6     1    2.3026E+01  2.4955E-01   2.2776E+01  0.000E+00  0.000E+00  0.000E+00  1.04389E+03  1.159E+00  1.200E+01  6.000E-02  1.386E+00
   1   10    7     6     2    2.2776E+01  2.4909E-01   2.2527E+01  0.000E+00  0.000E+00  0.000E+00  1.03933E+03  1.152E+00  1.200E+01  6.000E-02  1.384E+00
   1   11    7     6     3    2.2527E+01  2.4863E-01   2.2279E+01  0.000E+00  0.000E+00  0.000E+00  1.03478E+03  1.144E+00  1.200E+01  6.000E-02  1.381E+00
   1   12    7     6     4    2.2279E+01  2.4818E-01   2.2030E+01  0.000E+00  0.000E+00  0.000E+00  1.03023E+03  1.136E+00  1.200E+01  6.000E-02  1.379E+00
   1   13    7     6     5    2.2030E+01 -2.2247E-02   2.2053E+01  0.000E+00  0.000E+00  0.000E+00  1.02704E+03  1.133E+00  1.200E+01  2.400E-01 -3.090E-02
   1   14    9     7     1    1.5000E+02  1.3356E+00   1.4866E+02  0.000E+00  0.000E+00  0.000E+00  1.03987E+03  2.288E+00  5.529E+01  5.593E-01  7.960E-01
   1   13    8     7     2    1.4866E+02  1.8258E+00   1.4684E+02  0.000E+00  0.000E+00  0.000E+00  1.03478E+03  2.279E+00  5.526E+01  6.148E-01  9.899E-01
   1   13    7     7     3    1.4684E+02  1.4271E+00   1.4541E+02  0.000E+00  0.000E+00  0.000E+00  1.02969E+03  2.271E+00  5.522E+01  5.585E-01  8.518E-01
   1   13    6     8     1    1.6746E+02  8.4574E-01   1.6662E+02  0.000E+00  0.000E+00  0.000E+00  1.02481E+03  2.933E+00  4.253E+01  4.334E-01  6.505E-01
   1   13    5     8     2    1.6662E+02  9.5960E-02   1.6652E+02  0.000E+00  0.000E+00  0.000E+00  1.01855E+03  2.930E+00  4.248E+01  4.329E-01  7.389E-02
   1   13    4     8     3    1.6652E+02 -2.9357E+00   1.6946E+02  0.000E+00  0.000E+00  0.000E+00  1.01231E+03  2.939E+00  4.262E+01  4.343E+00 -2.253E-01
   1   13    3     8     4    1.6946E+02 -4.0418E+00   1.7350E+02  0.000E+00  0.000E+00  0.000E+00  1.00609E+03  2.962E+00  4.295E+01  4.377E+00 -3.078E-01
   1   13    2     8     5    1.7350E+02 -2.9610E+00   1.7646E+02  0.000E+00  0.000E+00  0.000E+00  9.99859E+02  2.984E+00  4.327E+01  4.410E+00 -2.238E-01
   1   13    1     8     6    1.7646E+02 -2.2241E+00   1.7869E+02  0.000E+00  0.000E+00  0.000E+00  9.94876E+02  3.001E+00  4.351E+01  2.661E+00 -2.786E-01
   1    8    6     9     1    3.1666E+00  0.0000E+00   3.1666E+00  0.000E+00  0.000E+00  0.000E+00  1.07988E+03  1.132E+00  4.000E+00  0.000E+00  1.377E+00
   1    8    5     9     2    3.1666E+00  0.0000E+00   3.1666E+00  0.000E+00  0.000E+00  0.000E+00  1.07938E+03  1.132E+00  4.000E+00  0.000E+00  1.377E+00



 UBDSV3 SAVING "           GW ET" ON UNIT  61 AT TIME STEP  9, STRESS PERIOD   5
 UBDSV3 SAVING "    UZF RECHARGE" ON UNIT  61 AT TIME STEP  9, STRESS PERIOD   5
 UBDSV3 SAVING " SURFACE LEAKAGE" ON UNIT  61 AT TIME STEP  9, STRESS PERIOD   5
 UBDSV3 SAVING "       HORT+DUNN" ON UNIT  61 AT TIME STEP  9, STRESS PERIOD   5
 UBDSV3 SAVING "  STORAGE CHANGE" ON UNIT  61 AT TIME STEP  9, STRESS PERIOD   5


UNSATURATED ZONE PACKAGE VOLUMETRIC BUDGET FOR  TIME STEP     9 STRESS PERIOD    5
  ------------------------------------------------------------------------------



     CUMULATIVE VOLUMES      L**3       RATES FOR THIS TIME STEP      L**3/T
     ------------------                 ------------------------

           IN:                                      IN:
           ---                                      ---
        INFILTRATION =    38861764.6624          INFILTRATION =           7.5741

          OUT:                                     OUT:
          ----                                     ----
              UZF ET =    19815528.5164                UZF ET =          10.2817
        UZF RECHARGE =       73224.0000          UZF RECHARGE =       0.0000E+00

            IN - OUT =    18973012.1460              IN - OUT =          -2.7075

          STORAGE:                                 STORAGE:
          --------                                 --------
      STORAGE CHANGE =    18973011.8838        STORAGE CHANGE =          -2.7075

 PERCENT DISCREPANCY IS DIFFERENCE BETWEEN IN-OUT MINUS CHANGE IN STORAGE
 DIVIDED BY THE AVERAGE OF IN AND OUT TIMES 100

 PERCENT DISCREPANCY =           0.00     PERCENT DISCREPANCY =           0.00






 

            AG WELLS      PERIOD    5   STEP   9
 AG WELL      1   LAYER   1   ROW     6   COL     4   RATE     0.00000    
 AG WELL      2   LAYER   1   ROW     6   COL     5   RATE     0.00000    
 AG WELL      3   LAYER   1   ROW     7   COL     4   RATE     0.00000    
 AG WELL      4   LAYER   1   ROW     7   COL     5   RATE     0.00000    
 AG WELL      5   LAYER   1   ROW     8   COL     4   RATE     0.00000    
 AG WELL      6   LAYER   1   ROW     8   COL     5   RATE     0.00000    
 
 

   DIVERSION SEGMENTS     PERIOD    5   STEP   9
 SEGMENT      9   RATE     3.16658    
 
 

        SW IRRIGATION     PERIOD    5   STEP   9
 SEGMENT      9   ROW     6   COL     4   RATE    0.527774    
 SEGMENT      9   ROW     6   COL     5   RATE    0.527774    
 SEGMENT      9   ROW     7   COL     4   RATE    0.527774    
 SEGMENT      9   ROW     7   COL     5   RATE    0.527774    
 SEGMENT      9   ROW     8   COL     4   RATE    0.527774    
 SEGMENT      9   ROW     8   COL     5   RATE    0.527774    
 
 

        GW IRRIGATION     PERIOD    5   STEP   9
 AG WELL      1   ROW     6   COL     4   RATE     0.00000    
 AG WELL      2   ROW     6   COL     5   RATE     0.00000    
 AG WELL      3   ROW     7   COL     4   RATE     0.00000    
 AG WELL      4   ROW     7   COL     5   RATE     0.00000    
 AG WELL      5   ROW     8   COL     4   RATE     0.00000    
 AG WELL      6   ROW     8   COL     5   RATE     0.00000    
 
1
  VOLUMETRIC BUDGET FOR ENTIRE MODEL AT END OF TIME STEP    9, STRESS PERIOD   5
  ------------------------------------------------------------------------------

     CUMULATIVE VOLUMES      L**3       RATES FOR THIS TIME STEP      L**3/T
     ------------------                 ------------------------

           IN:                                      IN:
           ---                                      ---
               AG WELLS  =           0.0000                 AG WELLS  =           0.0000
        DIVERSION SEGMEN =      535838.9375          DIVERSION SEGMEN =           3.1666
    TS         GW IRRIGA =           0.0000      TS         GW IRRIGA =           0.0000
    TION         SW IRRI =           0.0000      TION         SW IRRI =           0.0000
    GATION      SYSTEM L =           0.0000      GATION      SYSTEM L =           0.0000
    OSSES GW      SYSTEM =           0.0000      OSSES GW      SYSTEM =           0.0000

                TOTAL IN =      535838.9375                  TOTAL IN =           3.1666

          OUT:                                     OUT:
          ----                                     ----
               AG WELLS  =           0.0000                 AG WELLS  =           0.0000
        DIVERSION SEGMEN =           0.0000          DIVERSION SEGMEN =           0.0000
    TS         GW IRRIGA =           0.0000      TS         GW IRRIGA =           0.0000
    TION         SW IRRI =      535849.6250      TION         SW IRRI =           3.1666
    GATION      SYSTEM L =           0.0000      GATION      SYSTEM L =           0.0000
    OSSES GW      SYSTEM =           0.0000      OSSES GW      SYSTEM =           0.0000

               TOTAL OUT =      535849.6250                 TOTAL OUT =           3.1666

                IN - OUT =         -10.6875                  IN - OUT =      -6.3181E-05

     PERCENT DISCREPANCY =          -0.00         PERCENT DISCREPANCY =          -0.00



1
  VOLUMETRIC BUDGET FOR ENTIRE MODEL AT END OF TIME STEP    9, STRESS PERIOD   5
  ------------------------------------------------------------------------------

     CUMULATIVE VOLUMES      L**3       RATES FOR THIS TIME STEP      L**3/T
     ------------------                 ------------------------

           IN:                                      IN:
           ---                                      ---
             STORAGE     =     6138028.0000               STORAGE     =           1.9554
       CONSTANT HEAD     =           0.0000         CONSTANT HEAD     =           0.0000
     HEAD DEP BOUNDS     =     2504177.2500       HEAD DEP BOUNDS     =           0.2857
      STREAM LEAKAGE     =   104860560.0000        STREAM LEAKAGE     =          11.3333
        UZF RECHARGE     =       73223.9531          UZF RECHARGE     =           0.0000
               GW ET     =           0.0000                 GW ET     =           0.0000
     SURFACE LEAKAGE     =           0.0000       SURFACE LEAKAGE     =           0.0000
           AG WELLS      =           0.0000             AG WELLS      =           0.0000

                TOTAL IN =   113575992.0000                  TOTAL IN =          13.5744

          OUT:                                     OUT:
          ----                                     ----
             STORAGE     =    18979272.0000               STORAGE     =           1.0842
       CONSTANT HEAD     =           0.0000         CONSTANT HEAD     =           0.0000
     HEAD DEP BOUNDS     =     2548369.7500       HEAD DEP BOUNDS     =           0.2931
      STREAM LEAKAGE     =    92031680.0000        STREAM LEAKAGE     =          12.1848
        UZF RECHARGE     =           0.0000          UZF RECHARGE     =           0.0000
               GW ET     =       20337.4238                 GW ET     =       1.1916E-02
     SURFACE LEAKAGE     =           0.0000       SURFACE LEAKAGE     =           0.0000
           AG WELLS      =           0.0000             AG WELLS      =           0.0000

               TOTAL OUT =   113579656.0000                 TOTAL OUT =          13.5740

                IN - OUT =       -3664.0000                  IN - OUT =       3.9864E-04

     PERCENT DISCREPANCY =          -0.00         PERCENT DISCREPANCY =           0.00






         TIME SUMMARY AT END OF TIME STEP    9 IN STRESS PERIOD    5
                    SECONDS     MINUTES      HOURS       DAYS        YEARS
                    -----------------------------------------------------------
   TIME STEP LENGTH  87667.      1461.1      24.352      1.0147     2.77799E-03
 STRESS PERIOD TIME 7.89000E+05  13150.      219.17      9.1319     2.50019E-02
         TOTAL TIME 8.76540E+06 1.46090E+05  2434.8      101.45     0.27776    
1
 
 SOLVING FOR HEAD 
                                                   Max.-Head-Change                         Max.-Flux-Residual
  Residual-Control   Outer-Iter.   Inner-Iter.     Column Row Layer    Maximum-Head-Change  Column Row Layer    Maximum-Flux-Residual          L2-NORM 
          0                 1           2             2   13     1      -0.5752776235E-02       2   13    1        -0.3235812531E+00      0.6132477342E+00
          0                 2           2             2   13     1       0.5388495789E-03       2   13    1         0.3115568168E-01      0.5997923998E-01
          0                 3           1             2   13     1      -0.3476319450E-04       2   13    1        -0.2065866562E-02      0.4070763709E-02

    ------------------------------------------------
       NWT REQUIRED            3 OUTER ITERATIONS 
       AND A TOTAL OF          5 INNER ITERATIONS.
    ------------------------------------------------

 OUTPUT CONTROL FOR STRESS PERIOD    5   TIME STEP   10
    PRINT BUDGET
    SAVE BUDGET
 UBDSV1 SAVING "         STORAGE" ON UNIT 102 AT TIME STEP 10, STRESS PERIOD   5
 UBDSV2 SAVING "   CONSTANT HEAD" ON UNIT 102 AT TIME STEP 10, STRESS PERIOD   5
 UBDSV1 SAVING "FLOW RIGHT FACE " ON UNIT 102 AT TIME STEP 10, STRESS PERIOD   5
 UBDSV1 SAVING "FLOW FRONT FACE " ON UNIT 102 AT TIME STEP 10, STRESS PERIOD   5

  HEAD DEP BOUNDS   PERIOD    5   STEP    10
 BOUNDARY      1   LAYER   1   ROW    13   COL     1   RATE   -0.292910    
 BOUNDARY      2   LAYER   1   ROW    14   COL     9   RATE    0.285743    



 STREAM LISTING     PERIOD      5   STEP       10

 LAYER ROW COL. STREAM  RCH.  FLOW INTO     FLOW TO   FLOW OUT OF   OVRLND.     DIRECT     STREAM       STREAM     STREAM     STREAM   STREAMBED  STREAMBED
                SEG.NO.  NO.  STRM. RCH.    AQUIFER    STRM. RCH.    RUNOFF     PRECIP       ET          HEAD       DEPTH      WIDTH   CONDCTNC.   GRADIENT

   1    1    1     1     1    2.1000E+01  2.2592E-01   2.0774E+01  0.000E+00  0.000E+00  0.000E+00  1.09416E+03  1.115E+00  1.220E+01  5.490E-02  1.372E+00
   1    2    2     1     2    2.0774E+01  3.4916E-01   2.0425E+01  0.000E+00  0.000E+00  0.000E+00  1.08917E+03  1.110E+00  1.214E+01  8.495E-02  1.370E+00
   1    3    3     1     3    2.0425E+01  2.9709E-01   2.0128E+01  0.000E+00  0.000E+00  0.000E+00  1.08352E+03  1.105E+00  1.206E+01  7.238E-02  1.368E+00
   1    3    4     1     4    2.0128E+01  2.7299E-01   1.9855E+01  0.000E+00  0.000E+00  0.000E+00  1.07851E+03  1.100E+00  1.200E+01  6.659E-02  1.367E+00
   1    4    5     2     1    1.7855E+01  3.1056E-01   1.7544E+01  0.000E+00  0.000E+00  0.000E+00  1.07292E+03  9.816E-01  1.200E+01  7.800E-02  1.327E+00
   1    5    6     2     2    1.7544E+01  2.3834E-01   1.7306E+01  0.000E+00  0.000E+00  0.000E+00  1.06748E+03  9.724E-01  1.200E+01  6.000E-02  1.324E+00
   1    6    6     2     3    1.7306E+01  2.3787E-01   1.7068E+01  0.000E+00  0.000E+00  0.000E+00  1.06276E+03  9.644E-01  1.200E+01  6.000E-02  1.321E+00
   1    7    6     2     4    1.7068E+01  2.3738E-01   1.6831E+01  0.000E+00  0.000E+00  0.000E+00  1.05803E+03  9.564E-01  1.200E+01  6.000E-02  1.319E+00
   1    8    6     2     5    1.6831E+01  2.3690E-01   1.6594E+01  0.000E+00  0.000E+00  0.000E+00  1.05331E+03  9.483E-01  1.200E+01  6.000E-02  1.316E+00
   1    3    5     3     1    2.0000E+00  2.8252E-01   1.7175E+00  0.000E+00  0.000E+00  0.000E+00  1.07555E+03  1.909E+00  9.636E+00  7.227E-02  1.955E+00
   1    3    6     3     2    1.7175E+00  2.4905E-01   1.4684E+00  0.000E+00  0.000E+00  0.000E+00  1.07264E+03  1.727E+00  8.909E+00  6.682E-02  1.864E+00
   1    3    7     3     3    1.4684E+00  1.9718E-01   1.2712E+00  0.000E+00  0.000E+00  0.000E+00  1.06987E+03  1.555E+00  8.218E+00  5.547E-02  1.777E+00
   1    4    8     3     4    1.2712E+00  2.2567E-01   1.0456E+00  0.000E+00  0.000E+00  0.000E+00  1.06682E+03  1.364E+00  7.455E+00  6.709E-02  1.682E+00
   1    5    8     3     5    1.0456E+00  1.5790E-01   8.8768E-01  0.000E+00  0.000E+00  0.000E+00  1.06362E+03  1.164E+00  6.655E+00  4.991E-02  1.582E+00
   1    6    8     3     6    8.8768E-01  5.5980E-02   8.3170E-01  0.000E+00  0.000E+00  0.000E+00  1.06158E+03  1.036E+00  6.145E+00  1.844E-02  1.518E+00
   1    5   10     4     1    1.0000E+01  9.0919E-02   9.9091E+00  0.000E+00  0.000E+00  0.000E+00  1.07836E+03  6.368E-01  1.000E+01  2.500E-02  1.212E+00
   1    5    9     4     2    9.9091E+00  1.8158E-01   9.7275E+00  0.000E+00  0.000E+00  0.000E+00  1.07154E+03  6.315E-01  1.000E+01  5.000E-02  1.211E+00
   1    6    8     4     3    9.7275E+00  1.2689E-01   9.6006E+00  0.000E+00  0.000E+00  0.000E+00  1.06381E+03  6.256E-01  1.000E+01  3.500E-02  1.209E+00
   1    6    8     5     1    1.0432E+01  2.2686E-01   1.0205E+01  0.000E+00  0.000E+00  0.000E+00  1.05868E+03  6.790E-01  1.542E+01  6.166E-02  1.226E+00
   1    7    7     5     2    1.0205E+01  2.7894E-01   9.9265E+00  0.000E+00  0.000E+00  0.000E+00  1.05417E+03  6.732E-01  1.519E+01  7.594E-02  1.224E+00
   1    8    7     5     3    9.9265E+00  1.9221E-01   9.7343E+00  0.000E+00  0.000E+00  0.000E+00  1.04992E+03  6.676E-01  1.497E+01  5.241E-02  1.223E+00
   1    8    6     5     4    9.7343E+00  1.3577E-01   9.5985E+00  0.000E+00  0.000E+00  0.000E+00  1.04691E+03  6.637E-01  1.482E+01  3.706E-02  1.221E+00
   1    9    6     6     1    2.6192E+01  2.5512E-01   2.5937E+01  0.000E+00  0.000E+00  0.000E+00  1.04398E+03  1.252E+00  1.200E+01  6.000E-02  1.417E+00
   1   10    7     6     2    2.5937E+01  2.5468E-01   2.5683E+01  0.000E+00  0.000E+00  0.000E+00  1.03943E+03  1.245E+00  1.200E+01  6.000E-02  1.415E+00
   1   11    7     6     3    2.5683E+01  2.5424E-01   2.5428E+01  0.000E+00  0.000E+00  0.000E+00  1.03487E+03  1.237E+00  1.200E+01  6.000E-02  1.412E+00
   1   12    7     6     4    2.5428E+01  2.5379E-01   2.5175E+01  0.000E+00  0.000E+00  0.000E+00  1.03032E+03  1.230E+00  1.200E+01  6.000E-02  1.410E+00
   1   13    7     6     5    2.5175E+01  9.2222E-06   2.5175E+01  0.000E+00  0.000E+00  0.000E+00  1.02714E+03  1.226E+00  1.200E+01  2.400E-02  1.281E-04
   1   14    9     7     1    1.5000E+02  1.3356E+00   1.4866E+02  0.000E+00  0.000E+00  0.000E+00  1.03987E+03  2.288E+00  5.529E+01  5.593E-01  7.960E-01
   1   13    8     7     2    1.4866E+02  1.8257E+00   1.4684E+02  0.000E+00  0.000E+00  0.000E+00  1.03478E+03  2.279E+00  5.526E+01  6.148E-01  9.899E-01
   1   13    7     7     3    1.4684E+02  1.4269E+00   1.4541E+02  0.000E+00  0.000E+00  0.000E+00  1.02969E+03  2.271E+00  5.522E+01  5.585E-01  8.517E-01
   1   13    6     8     1    1.7059E+02  8.6080E-01   1.6973E+02  0.000E+00  0.000E+00  0.000E+00  1.02483E+03  2.953E+00  4.282E+01  4.364E-01  6.576E-01
   1   13    5     8     2    1.6973E+02  1.0586E-01   1.6962E+02  0.000E+00  0.000E+00  0.000E+00  1.01858E+03  2.950E+00  4.278E+01  4.359E-01  8.095E-02
   1   13    4     8     3    1.6962E+02 -2.8497E+00   1.7247E+02  0.000E+00  0.000E+00  0.000E+00  1.01233E+03  2.959E+00  4.291E+01  4.372E+00 -2.173E-01
   1   13    3     8     4    1.7247E+02 -3.9643E+00   1.7643E+02  0.000E+00  0.000E+00  0.000E+00  1.00611E+03  2.981E+00  4.322E+01  4.405E+00 -3.000E-01
   1   13    2     8     5    1.7643E+02 -2.8748E+00   1.7931E+02  0.000E+00  0.000E+00  0.000E+00  9.99878E+02  3.003E+00  4.354E+01  4.437E+00 -2.160E-01
   1   13    1     8     6    1.7931E+02 -2.1798E+00   1.8149E+02  0.000E+00  0.000E+00  0.000E+00  9.94894E+02  3.019E+00  4.377E+01  2.676E+00 -2.715E-01
   1    8    6     9     1    0.0000E+00  0.0000E+00   0.0000E+00  0.000E+00  0.000E+00  0.000E+00  1.07875E+03  0.000E+00  4.000E+00  0.000E+00  1.000E+00
   1    8    5     9     2    0.0000E+00  0.0000E+00   0.0000E+00  0.000E+00  0.000E+00  0.000E+00  1.07825E+03  0.000E+00  4.000E+00  0.000E+00  1.000E+00



 UBDSV3 SAVING "           GW ET" ON UNIT  61 AT TIME STEP 10, STRESS PERIOD   5
 UBDSV3 SAVING "    UZF RECHARGE" ON UNIT  61 AT TIME STEP 10, STRESS PERIOD   5
 UBDSV3 SAVING " SURFACE LEAKAGE" ON UNIT  61 AT TIME STEP 10, STRESS PERIOD   5
 UBDSV3 SAVING "       HORT+DUNN" ON UNIT  61 AT TIME STEP 10, STRESS PERIOD   5
 UBDSV3 SAVING "  STORAGE CHANGE" ON UNIT  61 AT TIME STEP 10, STRESS PERIOD   5


UNSATURATED ZONE PACKAGE VOLUMETRIC BUDGET FOR  TIME STEP    10 STRESS PERIOD    5
  ------------------------------------------------------------------------------



     CUMULATIVE VOLUMES      L**3       RATES FOR THIS TIME STEP      L**3/T
     ------------------                 ------------------------

           IN:                                      IN:
           ---                                      ---
        INFILTRATION =    39248155.4810          INFILTRATION =           4.4075

          OUT:                                     OUT:
          ----                                     ----
              UZF ET =    20459819.8027                UZF ET =           7.3493
        UZF RECHARGE =       73224.0000          UZF RECHARGE =       0.0000E+00

            IN - OUT =    18715111.6782              IN - OUT =          -2.9418

          STORAGE:                                 STORAGE:
          --------                                 --------
      STORAGE CHANGE =    18715111.4112        STORAGE CHANGE =          -2.9418

 PERCENT DISCREPANCY IS DIFFERENCE BETWEEN IN-OUT MINUS CHANGE IN STORAGE
 DIVIDED BY THE AVERAGE OF IN AND OUT TIMES 100

 PERCENT DISCREPANCY =           0.00     PERCENT DISCREPANCY =           0.00






 

            AG WELLS      PERIOD    5   STEP  10
 AG WELL      1   LAYER   1   ROW     6   COL     4   RATE     0.00000    
 AG WELL      2   LAYER   1   ROW     6   COL     5   RATE     0.00000    
 AG WELL      3   LAYER   1   ROW     7   COL     4   RATE     0.00000    
 AG WELL      4   LAYER   1   ROW     7   COL     5   RATE     0.00000    
 AG WELL      5   LAYER   1   ROW     8   COL     4   RATE     0.00000    
 AG WELL      6   LAYER   1   ROW     8   COL     5   RATE     0.00000    
 
 

   DIVERSION SEGMENTS     PERIOD    5   STEP  10
 SEGMENT      9   RATE     0.00000    
 
 

        SW IRRIGATION     PERIOD    5   STEP  10
 SEGMENT      9   ROW     6   COL     4   RATE     0.00000    
 SEGMENT      9   ROW     6   COL     5   RATE     0.00000    
 SEGMENT      9   ROW     7   COL     4   RATE     0.00000    
 SEGMENT      9   ROW     7   COL     5   RATE     0.00000    
 SEGMENT      9   ROW     8   COL     4   RATE     0.00000    
 SEGMENT      9   ROW     8   COL     5   RATE     0.00000    
 
 

        GW IRRIGATION     PERIOD    5   STEP  10
 AG WELL      1   ROW     6   COL     4   RATE     0.00000    
 AG WELL      2   ROW     6   COL     5   RATE     0.00000    
 AG WELL      3   ROW     7   COL     4   RATE     0.00000    
 AG WELL      4   ROW     7   COL     5   RATE     0.00000    
 AG WELL      5   ROW     8   COL     4   RATE     0.00000    
 AG WELL      6   ROW     8   COL     5   RATE     0.00000    
 
1
  VOLUMETRIC BUDGET FOR ENTIRE MODEL AT END OF TIME STEP   10, STRESS PERIOD   5
  ------------------------------------------------------------------------------

     CUMULATIVE VOLUMES      L**3       RATES FOR THIS TIME STEP      L**3/T
     ------------------                 ------------------------

           IN:                                      IN:
           ---                                      ---
               AG WELLS  =           0.0000                 AG WELLS  =           0.0000
        DIVERSION SEGMEN =      535838.9375          DIVERSION SEGMEN =           0.0000
    TS         GW IRRIGA =           0.0000      TS         GW IRRIGA =           0.0000
    TION         SW IRRI =           0.0000      TION         SW IRRI =           0.0000
    GATION      SYSTEM L =           0.0000      GATION      SYSTEM L =           0.0000
    OSSES GW      SYSTEM =           0.0000      OSSES GW      SYSTEM =           0.0000

                TOTAL IN =      535838.9375                  TOTAL IN =           0.0000

          OUT:                                     OUT:
          ----                                     ----
               AG WELLS  =           0.0000                 AG WELLS  =           0.0000
        DIVERSION SEGMEN =           0.0000          DIVERSION SEGMEN =           0.0000
    TS         GW IRRIGA =           0.0000      TS         GW IRRIGA =           0.0000
    TION         SW IRRI =      535849.6250      TION         SW IRRI =           0.0000
    GATION      SYSTEM L =           0.0000      GATION      SYSTEM L =           0.0000
    OSSES GW      SYSTEM =           0.0000      OSSES GW      SYSTEM =           0.0000

               TOTAL OUT =      535849.6250                 TOTAL OUT =           0.0000

                IN - OUT =         -10.6875                  IN - OUT =           0.0000

     PERCENT DISCREPANCY =          -0.00         PERCENT DISCREPANCY =           0.00



1
  VOLUMETRIC BUDGET FOR ENTIRE MODEL AT END OF TIME STEP   10, STRESS PERIOD   5
  ------------------------------------------------------------------------------

     CUMULATIVE VOLUMES      L**3       RATES FOR THIS TIME STEP      L**3/T
     ------------------                 ------------------------

           IN:                                      IN:
           ---                                      ---
             STORAGE     =     6277632.5000               STORAGE     =           1.5924
       CONSTANT HEAD     =           0.0000         CONSTANT HEAD     =           0.0000
     HEAD DEP BOUNDS     =     2529227.5000       HEAD DEP BOUNDS     =           0.2857
      STREAM LEAKAGE     =   105858240.0000        STREAM LEAKAGE     =          11.3804
        UZF RECHARGE     =       73223.9531          UZF RECHARGE     =           0.0000
               GW ET     =           0.0000                 GW ET     =           0.0000
     SURFACE LEAKAGE     =           0.0000       SURFACE LEAKAGE     =           0.0000
           AG WELLS      =           0.0000             AG WELLS      =           0.0000

                TOTAL IN =   114738328.0000                  TOTAL IN =          13.2586

          OUT:                                     OUT:
          ----                                     ----
             STORAGE     =    19074840.0000               STORAGE     =           1.0901
       CONSTANT HEAD     =           0.0000         CONSTANT HEAD     =           0.0000
     HEAD DEP BOUNDS     =     2574048.2500       HEAD DEP BOUNDS     =           0.2929
      STREAM LEAKAGE     =    93072160.0000        STREAM LEAKAGE     =          11.8686
        UZF RECHARGE     =           0.0000          UZF RECHARGE     =           0.0000
               GW ET     =       20934.4609                 GW ET     =       6.8103E-03
     SURFACE LEAKAGE     =           0.0000       SURFACE LEAKAGE     =           0.0000
           AG WELLS      =           0.0000             AG WELLS      =           0.0000

               TOTAL OUT =   114741984.0000                 TOTAL OUT =          13.2584

                IN - OUT =       -3656.0000                  IN - OUT =       1.4877E-04

     PERCENT DISCREPANCY =          -0.00         PERCENT DISCREPANCY =           0.00






         TIME SUMMARY AT END OF TIME STEP   10 IN STRESS PERIOD    5
                    SECONDS     MINUTES      HOURS       DAYS        YEARS
                    -----------------------------------------------------------
   TIME STEP LENGTH  87667.      1461.1      24.352      1.0147     2.77799E-03
 STRESS PERIOD TIME 8.76667E+05  14611.      243.52      10.147     2.77799E-02
         TOTAL TIME 8.85306E+06 1.47551E+05  2459.2      102.47     0.28054    
1
 
 SOLVING FOR HEAD 
                                                   Max.-Head-Change                         Max.-Flux-Residual
  Residual-Control   Outer-Iter.   Inner-Iter.     Column Row Layer    Maximum-Head-Change  Column Row Layer    Maximum-Flux-Residual          L2-NORM 
          0                 1           2             2   13     1      -0.5325747864E-02       2   13    1        -0.2995634308E+00      0.5726467797E+00
          0                 2           2             2   13     1       0.4990764084E-03       2   13    1         0.2885628616E-01      0.5603750279E-01
          0                 3           1             2   13     1      -0.3222877001E-04       2   13    1        -0.1915280144E-02      0.3807003663E-02

    ------------------------------------------------
       NWT REQUIRED            3 OUTER ITERATIONS 
       AND A TOTAL OF          5 INNER ITERATIONS.
    ------------------------------------------------

 NO OUTPUT CONTROL FOR STRESS PERIOD    5   TIME STEP   11
 
 SOLVING FOR HEAD 
                                                   Max.-Head-Change                         Max.-Flux-Residual
  Residual-Control   Outer-Iter.   Inner-Iter.     Column Row Layer    Maximum-Head-Change  Column Row Layer    Maximum-Flux-Residual          L2-NORM 
          0                 1           2             2   13     1      -0.4930271344E-02       2   13    1        -0.2773173116E+00      0.5360837912E+00
          0                 2           2             2   13     1       0.4619636050E-03       2   13    1         0.2672667901E-01      0.5151391857E-01
          0                 3           1             2   13     1      -0.2991755291E-04       2   13    1        -0.1779102204E-02      0.3504790889E-02

    ------------------------------------------------
       NWT REQUIRED            3 OUTER ITERATIONS 
       AND A TOTAL OF          5 INNER ITERATIONS.
    ------------------------------------------------

 NO OUTPUT CONTROL FOR STRESS PERIOD    5   TIME STEP   12
 
 SOLVING FOR HEAD 
                                                   Max.-Head-Change                         Max.-Flux-Residual
  Residual-Control   Outer-Iter.   Inner-Iter.     Column Row Layer    Maximum-Head-Change  Column Row Layer    Maximum-Flux-Residual          L2-NORM 
          0                 1           2             2   13     1      -0.4565155901E-02       2   13    1        -0.2567311123E+00      0.5039280223E+00
          0                 2           2             2   13     1       0.4280677454E-03       2   13    1         0.2474572770E-01      0.4937829617E-01
          0                 3           1             2   13     1      -0.2767480965E-04       2   13    1        -0.1644331726E-02      0.3360918451E-02

    ------------------------------------------------
       NWT REQUIRED            3 OUTER ITERATIONS 
       AND A TOTAL OF          5 INNER ITERATIONS.
    ------------------------------------------------

 NO OUTPUT CONTROL FOR STRESS PERIOD    5   TIME STEP   13
 
 SOLVING FOR HEAD 
                                                   Max.-Head-Change                         Max.-Flux-Residual
  Residual-Control   Outer-Iter.   Inner-Iter.     Column Row Layer    Maximum-Head-Change  Column Row Layer    Maximum-Flux-Residual          L2-NORM 
          0                 1           2             2   13     1      -0.4227279007E-02       2   13    1        -0.2376976274E+00      0.4756316856E+00
          0                 2           2             2   13     1       0.3964676754E-03       2   13    1         0.2291580068E-01      0.4664076243E-01
          0                 3           1             2   13     1      -0.2562542100E-04       2   13    1        -0.1522331177E-02      0.3177961898E-02

    ------------------------------------------------
       NWT REQUIRED            3 OUTER ITERATIONS 
       AND A TOTAL OF          5 INNER ITERATIONS.
    ------------------------------------------------

 NO OUTPUT CONTROL FOR STRESS PERIOD    5   TIME STEP   14
 
 SOLVING FOR HEAD 
                                                   Max.-Head-Change                         Max.-Flux-Residual
  Residual-Control   Outer-Iter.   Inner-Iter.     Column Row Layer    Maximum-Head-Change  Column Row Layer    Maximum-Flux-Residual          L2-NORM 
          0                 1           2             2   13     1      -0.3914881038E-02       2   13    1        -0.2201012399E+00      0.4500022638E+00
          0                 2           2             2   13     1       0.3672588669E-03       2   13    1         0.2122453132E-01      0.4416326230E-01
          0                 3           1             2   13     1      -0.2376128185E-04       2   13    1        -0.1411392244E-02      0.3012708054E-02

    ------------------------------------------------
       NWT REQUIRED            3 OUTER ITERATIONS 
       AND A TOTAL OF          5 INNER ITERATIONS.
    ------------------------------------------------

 NO OUTPUT CONTROL FOR STRESS PERIOD    5   TIME STEP   15
 
 SOLVING FOR HEAD 
                                                   Max.-Head-Change                         Max.-Flux-Residual
  Residual-Control   Outer-Iter.   Inner-Iter.     Column Row Layer    Maximum-Head-Change  Column Row Layer    Maximum-Flux-Residual          L2-NORM 
          0                 1           2             2   13     1      -0.3625975574E-02       2   13    1        -0.2038297446E+00      0.4267988312E+00
          0                 2           2             2   13     1       0.3402036372E-03       2   13    1         0.1965804800E-01      0.4192450974E-01
          0                 3           1             2   13     1      -0.2199411424E-04       2   13    1        -0.1306155185E-02      0.2865470076E-02

    ------------------------------------------------
       NWT REQUIRED            3 OUTER ITERATIONS 
       AND A TOTAL OF          5 INNER ITERATIONS.
    ------------------------------------------------

 NO OUTPUT CONTROL FOR STRESS PERIOD    5   TIME STEP   16
 
 SOLVING FOR HEAD 
                                                   Max.-Head-Change                         Max.-Flux-Residual
  Residual-Control   Outer-Iter.   Inner-Iter.     Column Row Layer    Maximum-Head-Change  Column Row Layer    Maximum-Flux-Residual          L2-NORM 
          0                 1           2             2   13     1      -0.3358907582E-02       2   13    1        -0.1887897176E+00      0.4058167678E+00
          0                 2           2             2   13     1       0.3152326968E-03       2   13    1         0.1821252198E-01      0.3989589870E-01
          0                 3           1             2   13     1      -0.2039883379E-04       2   13    1        -0.1211286865E-02      0.2728258379E-02

    ------------------------------------------------
       NWT REQUIRED            3 OUTER ITERATIONS 
       AND A TOTAL OF          5 INNER ITERATIONS.
    ------------------------------------------------

 NO OUTPUT CONTROL FOR STRESS PERIOD    5   TIME STEP   17
 
 SOLVING FOR HEAD 
                                                   Max.-Head-Change                         Max.-Flux-Residual
  Residual-Control   Outer-Iter.   Inner-Iter.     Column Row Layer    Maximum-Head-Change  Column Row Layer    Maximum-Flux-Residual          L2-NORM 
          0                 1           2             2   13     1      -0.3111841274E-02       2   13    1        -0.1748775167E+00      0.3868463100E+00
          0                 2           2             2   13     1       0.2920923764E-03       2   13    1         0.1687304993E-01      0.3806491641E-01
          0                 3           1             2   13     1      -0.1889977369E-04       2   13    1        -0.1122092510E-02      0.2605648579E-02

    ------------------------------------------------
       NWT REQUIRED            3 OUTER ITERATIONS 
       AND A TOTAL OF          5 INNER ITERATIONS.
    ------------------------------------------------

 NO OUTPUT CONTROL FOR STRESS PERIOD    5   TIME STEP   18
 
 SOLVING FOR HEAD 
                                                   Max.-Head-Change                         Max.-Flux-Residual
  Residual-Control   Outer-Iter.   Inner-Iter.     Column Row Layer    Maximum-Head-Change  Column Row Layer    Maximum-Flux-Residual          L2-NORM 
          0                 1           2             2   13     1      -0.2883315307E-02       2   13    1        -0.1620106286E+00      0.3697125629E+00
          0                 2           2             2   13     1       0.2706974906E-03       2   13    1         0.1563473809E-01      0.3641339552E-01
          0                 3           1             2   13     1      -0.1752205278E-04       2   13    1        -0.1040130980E-02      0.2496371255E-02

    ------------------------------------------------
       NWT REQUIRED            3 OUTER ITERATIONS 
       AND A TOTAL OF          5 INNER ITERATIONS.
    ------------------------------------------------

 NO OUTPUT CONTROL FOR STRESS PERIOD    5   TIME STEP   19
 
 SOLVING FOR HEAD 
                                                   Max.-Head-Change                         Max.-Flux-Residual
  Residual-Control   Outer-Iter.   Inner-Iter.     Column Row Layer    Maximum-Head-Change  Column Row Layer    Maximum-Flux-Residual          L2-NORM 
          0                 1           2             2   13     1      -0.2671955553E-02       2   13    1        -0.1501115484E+00      0.3542484168E+00
          0                 2           2             1   13     1       0.2524008116E-03       2   13    1         0.1448962733E-01      0.3492296821E-01
          0                 3           1             1   13     1      -0.1652931100E-04       2   13    1        -0.9646505723E-03      0.2397976769E-02

    ------------------------------------------------
       NWT REQUIRED            3 OUTER ITERATIONS 
       AND A TOTAL OF          5 INNER ITERATIONS.
    ------------------------------------------------

 NO OUTPUT CONTROL FOR STRESS PERIOD    5   TIME STEP   20
 
 SOLVING FOR HEAD 
                                                   Max.-Head-Change                         Max.-Flux-Residual
  Residual-Control   Outer-Iter.   Inner-Iter.     Column Row Layer    Maximum-Head-Change  Column Row Layer    Maximum-Flux-Residual          L2-NORM 
          0                 1           2             1   13     1      -0.2550879034E-02       2   13    1        -0.1391057572E+00      0.3402998942E+00
          0                 2           2             1   13     1       0.2414559181E-03       1   13    1         0.1350633008E-01      0.3357956639E-01
          0                 3           1             1   13     1      -0.1581760264E-04       1   13    1        -0.9095947999E-03      0.2307639913E-02

    ------------------------------------------------
       NWT REQUIRED            3 OUTER ITERATIONS 
       AND A TOTAL OF          5 INNER ITERATIONS.
    ------------------------------------------------

 NO OUTPUT CONTROL FOR STRESS PERIOD    5   TIME STEP   21
 
 SOLVING FOR HEAD 
                                                   Max.-Head-Change                         Max.-Flux-Residual
  Residual-Control   Outer-Iter.   Inner-Iter.     Column Row Layer    Maximum-Head-Change  Column Row Layer    Maximum-Flux-Residual          L2-NORM 
          0                 1           2             1   13     1      -0.2437508630E-02       1   13    1        -0.1326469781E+00      0.3277246743E+00
          0                 2           2             1   13     1       0.2309104632E-03       1   13    1         0.1291892311E-01      0.3236864579E-01
          0                 3           1             1   13     1      -0.1514969729E-04       1   13    1        -0.8713531888E-03      0.2228297853E-02

    ------------------------------------------------
       NWT REQUIRED            3 OUTER ITERATIONS 
       AND A TOTAL OF          5 INNER ITERATIONS.
    ------------------------------------------------

 NO OUTPUT CONTROL FOR STRESS PERIOD    5   TIME STEP   22
 
 SOLVING FOR HEAD 
                                                   Max.-Head-Change                         Max.-Flux-Residual
  Residual-Control   Outer-Iter.   Inner-Iter.     Column Row Layer    Maximum-Head-Change  Column Row Layer    Maximum-Flux-Residual          L2-NORM 
          0                 1           2             1   13     1      -0.2328580293E-02       1   13    1        -0.1267421417E+00      0.3163977318E+00
          0                 2           2             1   13     1       0.2207658031E-03       1   13    1         0.1235361681E-01      0.3127862430E-01
          0                 3           1             1   13     1      -0.1450867851E-04       1   13    1        -0.8346412064E-03      0.2156585743E-02

    ------------------------------------------------
       NWT REQUIRED            3 OUTER ITERATIONS 
       AND A TOTAL OF          5 INNER ITERATIONS.
    ------------------------------------------------

 NO OUTPUT CONTROL FOR STRESS PERIOD    5   TIME STEP   23
 
 SOLVING FOR HEAD 
                                                   Max.-Head-Change                         Max.-Flux-Residual
  Residual-Control   Outer-Iter.   Inner-Iter.     Column Row Layer    Maximum-Head-Change  Column Row Layer    Maximum-Flux-Residual          L2-NORM 
          0                 1           2             1   13     1      -0.2223999858E-02       1   13    1        -0.1210709739E+00      0.3061899330E+00
          0                 2           2             1   13     1       0.2110039547E-03       1   13    1         0.1180943291E-01      0.3029629559E-01
          0                 3           1             1    1     1       0.1412388528E-04       1   13    1        -0.7986641504E-03      0.2090660897E-02

    ------------------------------------------------
       NWT REQUIRED            3 OUTER ITERATIONS 
       AND A TOTAL OF          5 INNER ITERATIONS.
    ------------------------------------------------

 NO OUTPUT CONTROL FOR STRESS PERIOD    5   TIME STEP   24
 
 SOLVING FOR HEAD 
                                                   Max.-Head-Change                         Max.-Flux-Residual
  Residual-Control   Outer-Iter.   Inner-Iter.     Column Row Layer    Maximum-Head-Change  Column Row Layer    Maximum-Flux-Residual          L2-NORM 
          0                 1           2             1    1     1       0.2129873386E-02       1   13    1        -0.1156248963E+00      0.2970058270E+00
          0                 2           2             1    1     1      -0.2071787496E-03       1   13    1         0.1128633149E-01      0.2941313935E-01
          0                 3           1             1    1     1       0.1410810367E-04       1    1    1         0.7740198854E-03      0.2032535017E-02

    ------------------------------------------------
       NWT REQUIRED            3 OUTER ITERATIONS 
       AND A TOTAL OF          5 INNER ITERATIONS.
    ------------------------------------------------

 NO OUTPUT CONTROL FOR STRESS PERIOD    5   TIME STEP   25
 
 SOLVING FOR HEAD 
                                                   Max.-Head-Change                         Max.-Flux-Residual
  Residual-Control   Outer-Iter.   Inner-Iter.     Column Row Layer    Maximum-Head-Change  Column Row Layer    Maximum-Flux-Residual          L2-NORM 
          0                 1           2             1    1     1       0.2127498603E-02       1    1    1         0.1104506023E+00      0.2887316022E+00
          0                 2           2             1    1     1      -0.2069477476E-03       1    1    1        -0.1104507003E-01      0.2861569695E-01
          0                 3           1             1    1     1       0.1409237294E-04       1    1    1         0.7731551466E-03      0.1979307472E-02

    ------------------------------------------------
       NWT REQUIRED            3 OUTER ITERATIONS 
       AND A TOTAL OF          5 INNER ITERATIONS.
    ------------------------------------------------

 NO OUTPUT CONTROL FOR STRESS PERIOD    5   TIME STEP   26
 
 SOLVING FOR HEAD 
                                                   Max.-Head-Change                         Max.-Flux-Residual
  Residual-Control   Outer-Iter.   Inner-Iter.     Column Row Layer    Maximum-Head-Change  Column Row Layer    Maximum-Flux-Residual          L2-NORM 
          0                 1           2             1    1     1       0.2125131540E-02       1    1    1         0.1103274727E+00      0.2812881216E+00
          0                 2           2             1    1     1      -0.2067174959E-03       1    1    1        -0.1103275701E-01      0.2790102517E-01
          0                 3           1             1    1     1       0.1407669381E-04       1    1    1         0.7722932353E-03      0.1931847318E-02

    ------------------------------------------------
       NWT REQUIRED            3 OUTER ITERATIONS 
       AND A TOTAL OF          5 INNER ITERATIONS.
    ------------------------------------------------

 NO OUTPUT CONTROL FOR STRESS PERIOD    5   TIME STEP   27
 
 SOLVING FOR HEAD 
                                                   Max.-Head-Change                         Max.-Flux-Residual
  Residual-Control   Outer-Iter.   Inner-Iter.     Column Row Layer    Maximum-Head-Change  Column Row Layer    Maximum-Flux-Residual          L2-NORM 
          0                 1           2             1    1     1       0.2122750284E-02       1    1    1         0.1102036051E+00      0.2745855632E+00
          0                 2           2             1    1     1      -0.2064858638E-03       1    1    1        -0.1102037020E-01      0.2725550352E-01
          0                 3           1             1    1     1       0.1406092048E-04       1    1    1         0.7714261548E-03      0.1889094126E-02

    ------------------------------------------------
       NWT REQUIRED            3 OUTER ITERATIONS 
       AND A TOTAL OF          5 INNER ITERATIONS.
    ------------------------------------------------

 NO OUTPUT CONTROL FOR STRESS PERIOD    5   TIME STEP   28
 
 SOLVING FOR HEAD 
                                                   Max.-Head-Change                         Max.-Flux-Residual
  Residual-Control   Outer-Iter.   Inner-Iter.     Column Row Layer    Maximum-Head-Change  Column Row Layer    Maximum-Flux-Residual          L2-NORM 
          0                 1           2             4   13     1       0.3343451322E-02       4   13    1         0.1926159316E+00      0.4449798573E+00
          0                 2           2             7   13     1      -0.1273222667E-02       7   13    1        -0.7060827523E-01      0.8203357556E-01
          0                 3           1             7   13     1       0.8667615885E-04       7   13    1         0.4941154105E-02      0.5711856757E-02

    ------------------------------------------------
       NWT REQUIRED            3 OUTER ITERATIONS 
       AND A TOTAL OF          5 INNER ITERATIONS.
    ------------------------------------------------

 NO OUTPUT CONTROL FOR STRESS PERIOD    5   TIME STEP   29
 
 SOLVING FOR HEAD 
                                                   Max.-Head-Change                         Max.-Flux-Residual
  Residual-Control   Outer-Iter.   Inner-Iter.     Column Row Layer    Maximum-Head-Change  Column Row Layer    Maximum-Flux-Residual          L2-NORM 
          0                 1           2             4   13     1       0.1922895704E-01       4   13    1         0.1110355861E+01      0.2017640403E+01
          0                 2           2             4   13     1      -0.1850348703E-02       4   13    1        -0.1098603076E+00      0.1961686534E+00
          0                 3           2             4   13     1       0.1241258111E-03       4   13    1         0.7577390928E-02      0.1321087134E-01
          0                 4           1             4   13     1      -0.4806307111E-05       4   13    1        -0.3016888077E-03      0.5064919233E-03

    ------------------------------------------------
       NWT REQUIRED            4 OUTER ITERATIONS 
       AND A TOTAL OF          7 INNER ITERATIONS.
    ------------------------------------------------

 NO OUTPUT CONTROL FOR STRESS PERIOD    5   TIME STEP   30



 STREAM LISTING     PERIOD      5   STEP       30

 LAYER ROW COL. STREAM  RCH.  FLOW INTO     FLOW TO   FLOW OUT OF   OVRLND.     DIRECT     STREAM       STREAM     STREAM     STREAM   STREAMBED  STREAMBED
                SEG.NO.  NO.  STRM. RCH.    AQUIFER    STRM. RCH.    RUNOFF     PRECIP       ET          HEAD       DEPTH      WIDTH   CONDCTNC.   GRADIENT

   1    1    1     1     1    7.4250E+01  4.1989E-01   7.3830E+01  0.000E+00  0.000E+00  0.000E+00  1.09474E+03  1.690E+00  1.990E+01  8.954E-02  1.563E+00
   1    2    2     1     2    7.3830E+01  6.5045E-01   7.3180E+01  0.000E+00  0.000E+00  0.000E+00  1.08974E+03  1.684E+00  1.984E+01  1.389E-01  1.561E+00
   1    3    3     1     3    7.3180E+01  5.5490E-01   7.2625E+01  0.000E+00  0.000E+00  0.000E+00  1.08410E+03  1.677E+00  1.977E+01  1.186E-01  1.559E+00
   1    3    4     1     4    7.2625E+01  5.1113E-01   7.2114E+01  0.000E+00  0.000E+00  0.000E+00  1.07908E+03  1.671E+00  1.972E+01  1.094E-01  1.557E+00
   1    4    5     2     1    7.0114E+01  4.0857E-01   6.9705E+01  0.000E+00  0.000E+00  0.000E+00  1.07417E+03  2.238E+00  1.200E+01  7.800E-02  1.746E+00
   1    5    6     2     2    6.9705E+01  3.1387E-01   6.9391E+01  0.000E+00  0.000E+00  0.000E+00  1.06874E+03  2.231E+00  1.200E+01  6.000E-02  1.744E+00
   1    6    6     2     3    6.9391E+01  3.1350E-01   6.9078E+01  0.000E+00  0.000E+00  0.000E+00  1.06402E+03  2.225E+00  1.200E+01  6.000E-02  1.742E+00
   1    7    6     2     4    6.9078E+01  3.1314E-01   6.8765E+01  0.000E+00  0.000E+00  0.000E+00  1.05929E+03  2.219E+00  1.200E+01  6.000E-02  1.740E+00
   1    8    6     2     5    6.8765E+01  3.1278E-01   6.8452E+01  0.000E+00  0.000E+00  0.000E+00  1.05457E+03  2.213E+00  1.200E+01  6.000E-02  1.738E+00
   1    3    5     3     1    2.0000E+00  2.8252E-01   1.7175E+00  0.000E+00  0.000E+00  0.000E+00  1.07555E+03  1.909E+00  9.636E+00  7.227E-02  1.955E+00
   1    3    6     3     2    1.7175E+00  2.4905E-01   1.4684E+00  0.000E+00  0.000E+00  0.000E+00  1.07264E+03  1.727E+00  8.909E+00  6.682E-02  1.864E+00
   1    3    7     3     3    1.4684E+00  1.9718E-01   1.2712E+00  0.000E+00  0.000E+00  0.000E+00  1.06987E+03  1.555E+00  8.218E+00  5.547E-02  1.777E+00
   1    4    8     3     4    1.2712E+00  2.2567E-01   1.0456E+00  0.000E+00  0.000E+00  0.000E+00  1.06682E+03  1.364E+00  7.455E+00  6.709E-02  1.682E+00
   1    5    8     3     5    1.0456E+00  1.5790E-01   8.8768E-01  0.000E+00  0.000E+00  0.000E+00  1.06362E+03  1.164E+00  6.655E+00  4.991E-02  1.582E+00
   1    6    8     3     6    8.8768E-01  5.5980E-02   8.3170E-01  0.000E+00  0.000E+00  0.000E+00  1.06158E+03  1.036E+00  6.145E+00  1.844E-02  1.518E+00
   1    5   10     4     1    1.0000E+01  9.0919E-02   9.9091E+00  0.000E+00  0.000E+00  0.000E+00  1.07836E+03  6.368E-01  1.000E+01  2.500E-02  1.212E+00
   1    5    9     4     2    9.9091E+00  1.8158E-01   9.7275E+00  0.000E+00  0.000E+00  0.000E+00  1.07154E+03  6.315E-01  1.000E+01  5.000E-02  1.211E+00
   1    6    8     4     3    9.7275E+00  1.2689E-01   9.6006E+00  0.000E+00  0.000E+00  0.000E+00  1.06381E+03  6.256E-01  1.000E+01  3.500E-02  1.209E+00
   1    6    8     5     1    1.0432E+01  2.2686E-01   1.0205E+01  0.000E+00  0.000E+00  0.000E+00  1.05868E+03  6.790E-01  1.542E+01  6.166E-02  1.226E+00
   1    7    7     5     2    1.0205E+01  2.7894E-01   9.9265E+00  0.000E+00  0.000E+00  0.000E+00  1.05417E+03  6.732E-01  1.519E+01  7.594E-02  1.224E+00
   1    8    7     5     3    9.9265E+00  1.9221E-01   9.7343E+00  0.000E+00  0.000E+00  0.000E+00  1.04992E+03  6.676E-01  1.497E+01  5.241E-02  1.223E+00
   1    8    6     5     4    9.7343E+00  1.3577E-01   9.5985E+00  0.000E+00  0.000E+00  0.000E+00  1.04691E+03  6.637E-01  1.482E+01  3.706E-02  1.221E+00
   1    9    6     6     1    7.8051E+01  3.2488E-01   7.7726E+01  0.000E+00  0.000E+00  0.000E+00  1.04514E+03  2.415E+00  1.200E+01  6.000E-02  1.805E+00
   1   10    7     6     2    7.7726E+01  3.2452E-01   7.7401E+01  0.000E+00  0.000E+00  0.000E+00  1.04059E+03  2.409E+00  1.200E+01  6.000E-02  1.803E+00
   1   11    7     6     3    7.7401E+01  3.2415E-01   7.7077E+01  0.000E+00  0.000E+00  0.000E+00  1.03604E+03  2.403E+00  1.200E+01  6.000E-02  1.801E+00
   1   12    7     6     4    7.7077E+01  3.2379E-01   7.6753E+01  0.000E+00  0.000E+00  0.000E+00  1.03149E+03  2.397E+00  1.200E+01  6.000E-02  1.799E+00
   1   13    7     6     5    7.6753E+01  2.7930E-02   7.6725E+01  0.000E+00  0.000E+00  0.000E+00  1.02830E+03  2.393E+00  1.200E+01  2.400E-02  3.879E-01
   1   14    9     7     1    1.5000E+02  1.3357E+00   1.4866E+02  0.000E+00  0.000E+00  0.000E+00  1.03987E+03  2.288E+00  5.529E+01  5.593E-01  7.961E-01
   1   13    8     7     2    1.4866E+02  1.8236E+00   1.4684E+02  0.000E+00  0.000E+00  0.000E+00  1.03478E+03  2.279E+00  5.526E+01  6.148E-01  9.888E-01
   1   13    7     7     3    1.4684E+02  1.4249E+00   1.4542E+02  0.000E+00  0.000E+00  0.000E+00  1.02969E+03  2.271E+00  5.522E+01  5.585E-01  8.505E-01
   1   13    6     8     1    2.2214E+02  1.1020E+00   2.2104E+02  0.000E+00  0.000E+00  0.000E+00  1.02514E+03  3.261E+00  4.728E+01  4.818E-01  7.624E-01
   1   13    5     8     2    2.2104E+02  2.7100E-01   2.2077E+02  0.000E+00  0.000E+00  0.000E+00  1.01888E+03  3.257E+00  4.722E+01  4.812E-01  1.877E-01
   1   13    4     8     3    2.2077E+02 -1.6093E+00   2.2238E+02  0.000E+00  0.000E+00  0.000E+00  1.01264E+03  3.261E+00  4.728E+01  4.818E+00 -1.113E-01
   1   13    3     8     4    2.2238E+02 -2.8384E+00   2.2522E+02  0.000E+00  0.000E+00  0.000E+00  1.00640E+03  3.273E+00  4.746E+01  4.836E+00 -1.956E-01
   1   13    2     8     5    2.2522E+02 -1.6289E+00   2.2684E+02  0.000E+00  0.000E+00  0.000E+00  1.00016E+03  3.285E+00  4.763E+01  4.854E+00 -1.119E-01
   1   13    1     8     6    2.2684E+02 -1.4693E+00   2.2831E+02  0.000E+00  0.000E+00  0.000E+00  9.95168E+02  3.293E+00  4.776E+01  2.920E+00 -1.677E-01
   1    8    6     9     1    0.0000E+00  0.0000E+00   0.0000E+00  0.000E+00  0.000E+00  0.000E+00  1.07875E+03  0.000E+00  4.000E+00  0.000E+00  1.000E+00
   1    8    5     9     2    0.0000E+00  0.0000E+00   0.0000E+00  0.000E+00  0.000E+00  0.000E+00  1.07825E+03  0.000E+00  4.000E+00  0.000E+00  1.000E+00





UNSATURATED ZONE PACKAGE VOLUMETRIC BUDGET FOR  TIME STEP    30 STRESS PERIOD    5
  ------------------------------------------------------------------------------



     CUMULATIVE VOLUMES      L**3       RATES FOR THIS TIME STEP      L**3/T
     ------------------                 ------------------------

           IN:                                      IN:
           ---                                      ---
        INFILTRATION =    46975971.8530          INFILTRATION =           4.4075

          OUT:                                     OUT:
          ----                                     ----
              UZF ET =    28187636.1748                UZF ET =           4.4075
        UZF RECHARGE =       73224.0000          UZF RECHARGE =       0.0000E+00

            IN - OUT =    18715111.6782              IN - OUT =       0.0000E+00

          STORAGE:                                 STORAGE:
          --------                                 --------
      STORAGE CHANGE =    18715111.4112        STORAGE CHANGE =      -1.5603E-14

 PERCENT DISCREPANCY IS DIFFERENCE BETWEEN IN-OUT MINUS CHANGE IN STORAGE
 DIVIDED BY THE AVERAGE OF IN AND OUT TIMES 100

 PERCENT DISCREPANCY =           0.00     PERCENT DISCREPANCY =           0.00






1
  VOLUMETRIC BUDGET FOR ENTIRE MODEL AT END OF TIME STEP   30, STRESS PERIOD   5
  ------------------------------------------------------------------------------

     CUMULATIVE VOLUMES      L**3       RATES FOR THIS TIME STEP      L**3/T
     ------------------                 ------------------------

           IN:                                      IN:
           ---                                      ---
               AG WELLS  =           0.0000                 AG WELLS  =           0.0000
        DIVERSION SEGMEN =      535838.9375          DIVERSION SEGMEN =           0.0000
    TS         GW IRRIGA =           0.0000      TS         GW IRRIGA =           0.0000
    TION         SW IRRI =           0.0000      TION         SW IRRI =           0.0000
    GATION      SYSTEM L =           0.0000      GATION      SYSTEM L =           0.0000
    OSSES GW      SYSTEM =           0.0000      OSSES GW      SYSTEM =           0.0000

                TOTAL IN =      535838.9375                  TOTAL IN =           0.0000

          OUT:                                     OUT:
          ----                                     ----
               AG WELLS  =           0.0000                 AG WELLS  =           0.0000
        DIVERSION SEGMEN =           0.0000          DIVERSION SEGMEN =           0.0000
    TS         GW IRRIGA =           0.0000      TS         GW IRRIGA =           0.0000
    TION         SW IRRI =      535849.6250      TION         SW IRRI =           0.0000
    GATION      SYSTEM L =           0.0000      GATION      SYSTEM L =           0.0000
    OSSES GW      SYSTEM =           0.0000      OSSES GW      SYSTEM =           0.0000

               TOTAL OUT =      535849.6250                 TOTAL OUT =           0.0000

                IN - OUT =         -10.6875                  IN - OUT =           0.0000

     PERCENT DISCREPANCY =          -0.00         PERCENT DISCREPANCY =           0.00



1
  VOLUMETRIC BUDGET FOR ENTIRE MODEL AT END OF TIME STEP   30, STRESS PERIOD   5
  ------------------------------------------------------------------------------

     CUMULATIVE VOLUMES      L**3       RATES FOR THIS TIME STEP      L**3/T
     ------------------                 ------------------------

           IN:                                      IN:
           ---                                      ---
             STORAGE     =     8034239.5000               STORAGE     =           0.3901
       CONSTANT HEAD     =           0.0000         CONSTANT HEAD     =           0.0000
     HEAD DEP BOUNDS     =     3030241.0000       HEAD DEP BOUNDS     =           0.2858
      STREAM LEAKAGE     =   126050704.0000        STREAM LEAKAGE     =          13.4822
        UZF RECHARGE     =       73223.9531          UZF RECHARGE     =           0.0000
               GW ET     =           0.0000                 GW ET     =           0.0000
     SURFACE LEAKAGE     =           0.0000       SURFACE LEAKAGE     =           0.0000
           AG WELLS      =           0.0000             AG WELLS      =           0.0000

                TOTAL IN =   137188400.0000                  TOTAL IN =          14.1581

          OUT:                                     OUT:
          ----                                     ----
             STORAGE     =    21361266.0000               STORAGE     =           6.3206
       CONSTANT HEAD     =           0.0000         CONSTANT HEAD     =           0.0000
     HEAD DEP BOUNDS     =     3085712.5000       HEAD DEP BOUNDS     =           0.2915
      STREAM LEAKAGE     =   112723968.0000        STREAM LEAKAGE     =           7.5460
        UZF RECHARGE     =           0.0000          UZF RECHARGE     =           0.0000
               GW ET     =       21126.8125                 GW ET     =           0.0000
     SURFACE LEAKAGE     =           0.0000       SURFACE LEAKAGE     =           0.0000
           AG WELLS      =           0.0000             AG WELLS      =           0.0000

               TOTAL OUT =   137192064.0000                 TOTAL OUT =          14.1581

                IN - OUT =       -3664.0000                  IN - OUT =       2.3842E-05

     PERCENT DISCREPANCY =          -0.00         PERCENT DISCREPANCY =           0.00






         TIME SUMMARY AT END OF TIME STEP   30 IN STRESS PERIOD    5
                    SECONDS     MINUTES      HOURS       DAYS        YEARS
                    -----------------------------------------------------------
   TIME STEP LENGTH  87667.      1461.1      24.352      1.0147     2.77799E-03
 STRESS PERIOD TIME 2.63000E+06  43833.      730.56      30.440     8.33397E-02
         TOTAL TIME 1.06064E+07 1.76773E+05  2946.2      122.76     0.33610    
1
1
                            STRESS PERIOD NO.    6, LENGTH =   2630000.    
                            -----------------------------------------------

                              NUMBER OF TIME STEPS =    30

                               MULTIPLIER FOR DELT =     1.000

                            INITIAL TIME STEP SIZE =   87666.66    

 REUSING NON-PARAMETER GHB CELLS FROM LAST STRESS PERIOD

      2 GHB CELLS

 REUSING STREAM SEGMENT DATA FROM LAST STRESS PERIOD



            AREAL INFILTRATION RATE
 READING ON UNIT   19 WITH FORMAT: (10F4.0)            

            1           2           3           4           5           6           7           8           9          10
 ........................................................................................................................
   1   1.2000E-09   0.000       0.000       0.000       0.000       0.000       0.000       0.000       0.000       0.000    
   2   2.1000E-09  2.0000E-09  8.0000E-10  8.5000E-09   0.000       0.000       0.000       0.000       0.000       0.000    
   3   5.0000E-10  1.1000E-09  8.8000E-09  5.5000E-09   0.000       0.000       0.000       0.000       0.000       0.000    
   4   8.5000E-09  1.1000E-09  1.1000E-09  1.1000E-09  2.0000E-09   0.000       0.000       0.000       0.000       0.000    
   5   8.5000E-09  1.1000E-09  1.1000E-09  1.1000E-09  1.1000E-09   0.000       0.000       0.000       0.000       0.000    
   6   8.5000E-09  5.2000E-09  2.1000E-09  1.1000E-09  1.5000E-09   0.000       0.000       0.000       0.000       0.000    
   7   8.5000E-09  5.2000E-09  2.1000E-09  1.2000E-09  2.0000E-09   0.000       0.000       0.000       0.000       0.000    
   8   5.0000E-10  5.2000E-09  2.1000E-09  1.2000E-09  5.0000E-09   0.000       0.000       0.000       0.000       0.000    
   9   5.0000E-10  5.2000E-09  2.1000E-09  1.2000E-09  5.0000E-09   0.000       0.000       0.000       0.000       0.000    
  10   5.0000E-10  5.2000E-09  2.1000E-09  1.2000E-09  5.8000E-09   0.000       0.000       0.000       0.000       0.000    
  11   1.0000E-10  1.1000E-09  1.1000E-09  1.2000E-09  5.0000E-09   0.000       0.000       0.000       0.000       0.000    
  12   1.1000E-09  1.1000E-09  1.1000E-09  1.1000E-09  2.0000E-09   0.000       0.000       0.000       0.000       0.000    
  13   1.1000E-09  2.2000E-09  2.2000E-09  2.1000E-09  1.0000E-09   0.000       0.000       0.000       0.000       0.000    
  14   2.0000E-10  5.5000E-09  5.5000E-09  5.2000E-09  1.0000E-09   0.000       0.000       0.000       0.000       0.000    
  15    0.000      8.8000E-09  8.8000E-09   0.000       0.000       0.000       0.000       0.000       0.000       0.000    

                  ET RATE =  5.000000E-08

 USING ET EXTINCTION DEPTH FROM PREVIOUS STRESS PERIOD. CURRENT PERIOD IS:       6

 USING EXTINCTION WATER CONTENT FROM PREVIOUS STRESS PERIOD. CURRENT PERIOD IS:       6

 USING AIR ENTRY PRESSURE FROM PREVIOUS STRESS PERIOD. CURRENT PERIOD IS:       6

 USING ROOT PRESSURE HEAD FROM PREVIOUS STRESS PERIOD. CURRENT PERIOD IS:       6

 USING ROOT ACTIVITY FROM PREVIOUS STRESS PERIOD. CURRENT PERIOD IS:       6

 PROCESSING AG STRESS PERIOD DATA

 READING AG STRESS PERIOD DATA

 READING IRRIGATION SEGMENT

 READING IRRIGATION WELL

 READING SUPPLEMENTAL WELL

 END PROCESSING AG STRESS PERIOD DATA OPTIONS
 
 SOLVING FOR HEAD 
                                                   Max.-Head-Change                         Max.-Flux-Residual
  Residual-Control   Outer-Iter.   Inner-Iter.     Column Row Layer    Maximum-Head-Change  Column Row Layer    Maximum-Flux-Residual          L2-NORM 
          0                 1           2             4   13     1       0.1731967335E-01       4   13    1         0.9995410998E+00      0.1868769475E+01
          0                 2           2             4   13     1      -0.1666192929E-02       4   13    1        -0.9889143249E-01      0.1822925012E+00
          0                 3           1             4   13     1       0.1114073207E-03       4   13    1         0.6820010686E-02      0.1133356076E-01
          0                 4           1             4   13     1      -0.4321491546E-05       4   13    1        -0.2720207176E-03      0.4385894398E-03

    ------------------------------------------------
       NWT REQUIRED            4 OUTER ITERATIONS 
       AND A TOTAL OF          6 INNER ITERATIONS.
    ------------------------------------------------

 NO OUTPUT CONTROL FOR STRESS PERIOD    6   TIME STEP    1
 
 SOLVING FOR HEAD 
                                                   Max.-Head-Change                         Max.-Flux-Residual
  Residual-Control   Outer-Iter.   Inner-Iter.     Column Row Layer    Maximum-Head-Change  Column Row Layer    Maximum-Flux-Residual          L2-NORM 
          0                 1           2             4   13     1       0.1560936957E-01       4   13    1         0.9003057707E+00      0.1735119157E+01
          0                 2           2             3   13     1      -0.1820447153E-02       3   13    1        -0.1110250368E+00      0.1871966351E+00
          0                 3           2             3   13     1       0.1197560726E-03       3   13    1         0.7518193023E-02      0.1208743591E-01
          0                 4           1             3   13     1      -0.4514282614E-05       3   13    1        -0.2913936978E-03      0.4647656332E-03

    ------------------------------------------------
       NWT REQUIRED            4 OUTER ITERATIONS 
       AND A TOTAL OF          7 INNER ITERATIONS.
    ------------------------------------------------

 NO OUTPUT CONTROL FOR STRESS PERIOD    6   TIME STEP    2
 
 SOLVING FOR HEAD 
                                                   Max.-Head-Change                         Max.-Flux-Residual
  Residual-Control   Outer-Iter.   Inner-Iter.     Column Row Layer    Maximum-Head-Change  Column Row Layer    Maximum-Flux-Residual          L2-NORM 
          0                 1           2             2   13     1       0.1425571144E-01       4   13    1         0.8111533822E+00      0.1603606205E+01
          0                 2           2             4   13     1      -0.1830118915E-02       4   13    1        -0.1129386287E+00      0.1753638062E+00
          0                 3           1             4   13     1       0.1228387901E-03       4   13    1         0.7793974313E-02      0.1185889234E-01
          0                 4           1             4   13     1      -0.4768480326E-05       4   13    1        -0.3110873531E-03      0.4584619814E-03

    ------------------------------------------------
       NWT REQUIRED            4 OUTER ITERATIONS 
       AND A TOTAL OF          6 INNER ITERATIONS.
    ------------------------------------------------

 NO OUTPUT CONTROL FOR STRESS PERIOD    6   TIME STEP    3
 
 SOLVING FOR HEAD 
                                                   Max.-Head-Change                         Max.-Flux-Residual
  Residual-Control   Outer-Iter.   Inner-Iter.     Column Row Layer    Maximum-Head-Change  Column Row Layer    Maximum-Flux-Residual          L2-NORM 
          0                 1           2             2   13     1       0.1311099167E-01       2   13    1         0.7429325285E+00      0.1474191601E+01
          0                 2           2             2   13     1      -0.1219229812E-02       2   13    1        -0.7102045809E-01      0.1439326234E+00
          0                 3           1             2   13     1       0.7784544278E-04       4   13    1         0.4815496350E-02      0.9750574478E-02

    ------------------------------------------------
       NWT REQUIRED            3 OUTER ITERATIONS 
       AND A TOTAL OF          5 INNER ITERATIONS.
    ------------------------------------------------

 NO OUTPUT CONTROL FOR STRESS PERIOD    6   TIME STEP    4
 
 SOLVING FOR HEAD 
                                                   Max.-Head-Change                         Max.-Flux-Residual
  Residual-Control   Outer-Iter.   Inner-Iter.     Column Row Layer    Maximum-Head-Change  Column Row Layer    Maximum-Flux-Residual          L2-NORM 
          0                 1           2             2   13     1       0.1205469084E-01       2   13    1         0.6831571219E+00      0.1362158094E+01
          0                 2           2             2   13     1      -0.1122891891E-02       2   13    1        -0.6541683029E-01      0.1331563784E+00
          0                 3           1             2   13     1       0.7186909535E-04       2   13    1         0.4303522281E-02      0.9035298926E-02

    ------------------------------------------------
       NWT REQUIRED            3 OUTER ITERATIONS 
       AND A TOTAL OF          5 INNER ITERATIONS.
    ------------------------------------------------

 NO OUTPUT CONTROL FOR STRESS PERIOD    6   TIME STEP    5
 
 SOLVING FOR HEAD 
                                                   Max.-Head-Change                         Max.-Flux-Residual
  Residual-Control   Outer-Iter.   Inner-Iter.     Column Row Layer    Maximum-Head-Change  Column Row Layer    Maximum-Flux-Residual          L2-NORM 
          0                 1           2             2   13     1       0.1108086193E-01       2   13    1         0.6280277309E+00      0.1265639410E+01
          0                 2           2             2   13     1      -0.1033785335E-02       2   13    1        -0.6023158534E-01      0.1238926781E+00
          0                 3           1             2   13     1       0.6633469514E-04       2   13    1         0.3972561149E-02      0.8423196557E-02

    ------------------------------------------------
       NWT REQUIRED            3 OUTER ITERATIONS 
       AND A TOTAL OF          5 INNER ITERATIONS.
    ------------------------------------------------

 NO OUTPUT CONTROL FOR STRESS PERIOD    6   TIME STEP    6
 
 SOLVING FOR HEAD 
                                                   Max.-Head-Change                         Max.-Flux-Residual
  Residual-Control   Outer-Iter.   Inner-Iter.     Column Row Layer    Maximum-Head-Change  Column Row Layer    Maximum-Flux-Residual          L2-NORM 
          0                 1           2             2   13     1       0.1018352983E-01       2   13    1         0.5772113289E+00      0.1182527811E+01
          0                 2           2             2   13     1      -0.9514090199E-03       2   13    1        -0.5543626607E-01      0.1159227485E+00
          0                 3           1             2   13     1       0.6116736239E-04       2   13    1         0.3663397496E-02      0.7897209589E-02

    ------------------------------------------------
       NWT REQUIRED            3 OUTER ITERATIONS 
       AND A TOTAL OF          5 INNER ITERATIONS.
    ------------------------------------------------

 NO OUTPUT CONTROL FOR STRESS PERIOD    6   TIME STEP    7
 
 SOLVING FOR HEAD 
                                                   Max.-Head-Change                         Max.-Flux-Residual
  Residual-Control   Outer-Iter.   Inner-Iter.     Column Row Layer    Maximum-Head-Change  Column Row Layer    Maximum-Flux-Residual          L2-NORM 
          0                 1           2             2   13     1       0.9357312121E-02       2   13    1         0.5304075576E+00      0.1110965788E+01
          0                 2           2             2   13     1      -0.8753729504E-03       2   13    1        -0.5100855020E-01      0.1090718409E+00
          0                 3           1             2   13     1       0.5639029322E-04       2   13    1         0.3377487787E-02      0.7446918372E-02

    ------------------------------------------------
       NWT REQUIRED            3 OUTER ITERATIONS 
       AND A TOTAL OF          5 INNER ITERATIONS.
    ------------------------------------------------

 NO OUTPUT CONTROL FOR STRESS PERIOD    6   TIME STEP    8
 
 SOLVING FOR HEAD 
                                                   Max.-Head-Change                         Max.-Flux-Residual
  Residual-Control   Outer-Iter.   Inner-Iter.     Column Row Layer    Maximum-Head-Change  Column Row Layer    Maximum-Flux-Residual          L2-NORM 
          0                 1           2             2   13     1       0.8596860636E-02       2   13    1         0.4873170848E+00      0.1049359906E+01
          0                 2           2             2   13     1      -0.8052553249E-03       2   13    1        -0.4692430333E-01      0.1031801751E+00
          0                 3           1             2   13     1       0.5196568546E-04       2   13    1         0.3112605758E-02      0.7058641461E-02

    ------------------------------------------------
       NWT REQUIRED            3 OUTER ITERATIONS 
       AND A TOTAL OF          5 INNER ITERATIONS.
    ------------------------------------------------

 NO OUTPUT CONTROL FOR STRESS PERIOD    6   TIME STEP    9
 
 SOLVING FOR HEAD 
                                                   Max.-Head-Change                         Max.-Flux-Residual
  Residual-Control   Outer-Iter.   Inner-Iter.     Column Row Layer    Maximum-Head-Change  Column Row Layer    Maximum-Flux-Residual          L2-NORM 
          0                 1           2             2   13     1       0.7897247154E-02       2   13    1         0.4476638139E+00      0.9962875863E+00
          0                 2           2             2   13     1      -0.7404587024E-03       2   13    1        -0.4314891480E-01      0.9810598750E-01
          0                 3           1             2   13     1       0.4785553837E-04       2   13    1         0.2866460943E-02      0.6725266616E-02

    ------------------------------------------------
       NWT REQUIRED            3 OUTER ITERATIONS 
       AND A TOTAL OF          5 INNER ITERATIONS.
    ------------------------------------------------

 NO OUTPUT CONTROL FOR STRESS PERIOD    6   TIME STEP   10
 
 SOLVING FOR HEAD 
                                                   Max.-Head-Change                         Max.-Flux-Residual
  Residual-Control   Outer-Iter.   Inner-Iter.     Column Row Layer    Maximum-Head-Change  Column Row Layer    Maximum-Flux-Residual          L2-NORM 
          0                 1           2             2   13     1       0.7253977820E-02       2   13    1         0.4111956950E+00      0.9505325883E+00
          0                 2           2             2   13     1      -0.6808386563E-03       2   13    1        -0.3967430608E-01      0.9373864027E-01
          0                 3           1             2    2     1       0.4581080579E-04       2   13    1         0.2638922981E-02      0.6441386990E-02

    ------------------------------------------------
       NWT REQUIRED            3 OUTER ITERATIONS 
       AND A TOTAL OF          5 INNER ITERATIONS.
    ------------------------------------------------

 NO OUTPUT CONTROL FOR STRESS PERIOD    6   TIME STEP   11
 
 SOLVING FOR HEAD 
                                                   Max.-Head-Change                         Max.-Flux-Residual
  Residual-Control   Outer-Iter.   Inner-Iter.     Column Row Layer    Maximum-Head-Change  Column Row Layer    Maximum-Flux-Residual          L2-NORM 
          0                 1           2             2    2     1       0.6878948070E-02       2   13    1         0.3776666956E+00      0.9110248424E+00
          0                 2           2             2    2     1      -0.6691357372E-03       2   13    1        -0.3647256603E-01      0.8996795402E-01
          0                 3           1             2    2     1       0.4556564684E-04       2    2    1         0.2511739942E-02      0.6191507886E-02

    ------------------------------------------------
       NWT REQUIRED            3 OUTER ITERATIONS 
       AND A TOTAL OF          5 INNER ITERATIONS.
    ------------------------------------------------

 NO OUTPUT CONTROL FOR STRESS PERIOD    6   TIME STEP   12
 
 SOLVING FOR HEAD 
                                                   Max.-Head-Change                         Max.-Flux-Residual
  Residual-Control   Outer-Iter.   Inner-Iter.     Column Row Layer    Maximum-Head-Change  Column Row Layer    Maximum-Flux-Residual          L2-NORM 
          0                 1           2             2    2     1       0.6842435667E-02       2    2    1         0.3568999034E+00      0.8768654518E+00
          0                 2           2             2    2     1      -0.6655840498E-03       2    2    1        -0.3569009932E-01      0.8671115359E-01
          0                 3           1             2    2     1       0.4532379019E-04       2    2    1         0.2498306994E-02      0.5979159212E-02

    ------------------------------------------------
       NWT REQUIRED            3 OUTER ITERATIONS 
       AND A TOTAL OF          5 INNER ITERATIONS.
    ------------------------------------------------

 NO OUTPUT CONTROL FOR STRESS PERIOD    6   TIME STEP   13
 
 SOLVING FOR HEAD 
                                                   Max.-Head-Change                         Max.-Flux-Residual
  Residual-Control   Outer-Iter.   Inner-Iter.     Column Row Layer    Maximum-Head-Change  Column Row Layer    Maximum-Flux-Residual          L2-NORM 
          0                 1           2             2    2     1       0.6806413937E-02       2    2    1         0.3550067808E+00      0.8472499996E+00
          0                 2           2             2    2     1      -0.6620800927E-03       2    2    1        -0.3550078539E-01      0.8388299395E-01
          0                 3           1             2    2     1       0.4508518400E-04       2    2    1         0.2485055044E-02      0.5793572946E-02

    ------------------------------------------------
       NWT REQUIRED            3 OUTER ITERATIONS 
       AND A TOTAL OF          5 INNER ITERATIONS.
    ------------------------------------------------

 NO OUTPUT CONTROL FOR STRESS PERIOD    6   TIME STEP   14
 
 SOLVING FOR HEAD 
                                                   Max.-Head-Change                         Max.-Flux-Residual
  Residual-Control   Outer-Iter.   Inner-Iter.     Column Row Layer    Maximum-Head-Change  Column Row Layer    Maximum-Flux-Residual          L2-NORM 
          0                 1           2             2    2     1       0.6770875102E-02       2    2    1         0.3531390990E+00      0.8215204835E+00
          0                 2           2             2    2     1      -0.6586231078E-03       2    2    1        -0.3531401556E-01      0.8143029374E-01
          0                 3           1             2    2     1       0.4484977622E-04       2    2    1         0.2471981151E-02      0.5632741942E-02

    ------------------------------------------------
       NWT REQUIRED            3 OUTER ITERATIONS 
       AND A TOTAL OF          5 INNER ITERATIONS.
    ------------------------------------------------

 NO OUTPUT CONTROL FOR STRESS PERIOD    6   TIME STEP   15
 
 SOLVING FOR HEAD 
                                                   Max.-Head-Change                         Max.-Flux-Residual
  Residual-Control   Outer-Iter.   Inner-Iter.     Column Row Layer    Maximum-Head-Change  Column Row Layer    Maximum-Flux-Residual          L2-NORM 
          0                 1           2             2    2     1       0.6735812263E-02       2    2    1         0.3512964548E+00      0.7990916710E+00
          0                 2           2             2    2     1      -0.6552124256E-03       2    2    1        -0.3512974954E-01      0.7928636765E-01
          0                 3           1             2    2     1       0.4461752188E-04       2    2    1         0.2459082539E-02      0.5492215357E-02

    ------------------------------------------------
       NWT REQUIRED            3 OUTER ITERATIONS 
       AND A TOTAL OF          5 INNER ITERATIONS.
    ------------------------------------------------

 NO OUTPUT CONTROL FOR STRESS PERIOD    6   TIME STEP   16
 
 SOLVING FOR HEAD 
                                                   Max.-Head-Change                         Max.-Flux-Residual
  Residual-Control   Outer-Iter.   Inner-Iter.     Column Row Layer    Maximum-Head-Change  Column Row Layer    Maximum-Flux-Residual          L2-NORM 
          0                 1           2             2    2     1       0.6701130853E-02       2    2    1         0.3494739410E+00      0.7794725777E+00
          0                 2           2             2    2     1      -0.6518388461E-03       2    2    1        -0.3494749656E-01      0.7741084349E-01
          0                 3           1             2    2     1       0.4438779378E-04       2    2    1         0.2446324847E-02      0.5371237902E-02

    ------------------------------------------------
       NWT REQUIRED            3 OUTER ITERATIONS 
       AND A TOTAL OF          5 INNER ITERATIONS.
    ------------------------------------------------

 NO OUTPUT CONTROL FOR STRESS PERIOD    6   TIME STEP   17
 
 SOLVING FOR HEAD 
                                                   Max.-Head-Change                         Max.-Flux-Residual
  Residual-Control   Outer-Iter.   Inner-Iter.     Column Row Layer    Maximum-Head-Change  Column Row Layer    Maximum-Flux-Residual          L2-NORM 
          0                 1           2             2    2     1       0.6666910459E-02       2    2    1         0.3476757530E+00      0.7622536347E+00
          0                 2           2             2    2     1      -0.6485101122E-03       2    2    1        -0.3476767624E-01      0.7576363115E-01
          0                 3           1             2    2     1       0.4416111996E-04       2    2    1         0.2433737447E-02      0.5261031498E-02

    ------------------------------------------------
       NWT REQUIRED            3 OUTER ITERATIONS 
       AND A TOTAL OF          5 INNER ITERATIONS.
    ------------------------------------------------

 NO OUTPUT CONTROL FOR STRESS PERIOD    6   TIME STEP   18
 
 SOLVING FOR HEAD 
                                                   Max.-Head-Change                         Max.-Flux-Residual
  Residual-Control   Outer-Iter.   Inner-Iter.     Column Row Layer    Maximum-Head-Change  Column Row Layer    Maximum-Flux-Residual          L2-NORM 
          0                 1           2             2    2     1       0.6633058275E-02       2    2    1         0.3458969184E+00      0.7470794072E+00
          0                 2           2             2    2     1      -0.6452171944E-03       2    2    1        -0.3458979125E-01      0.7430948905E-01
          0                 3           1             2    2     1       0.4393688434E-04       2    2    1         0.2421285488E-02      0.5164622746E-02

    ------------------------------------------------
       NWT REQUIRED            3 OUTER ITERATIONS 
       AND A TOTAL OF          5 INNER ITERATIONS.
    ------------------------------------------------

 NO OUTPUT CONTROL FOR STRESS PERIOD    6   TIME STEP   19
 
 SOLVING FOR HEAD 
                                                   Max.-Head-Change                         Max.-Flux-Residual
  Residual-Control   Outer-Iter.   Inner-Iter.     Column Row Layer    Maximum-Head-Change  Column Row Layer    Maximum-Flux-Residual          L2-NORM 
          0                 1           2             2    2     1       0.6599741124E-02       2    2    1         0.3441462748E+00      0.7336620486E+00
          0                 2           2             2    2     1      -0.6419763220E-03       2    2    1        -0.3441472543E-01      0.7302276502E-01
          0                 3           1             2    2     1       0.4371619314E-04       2    2    1         0.2409030891E-02      0.5079892821E-02

    ------------------------------------------------
       NWT REQUIRED            3 OUTER ITERATIONS 
       AND A TOTAL OF          5 INNER ITERATIONS.
    ------------------------------------------------

 NO OUTPUT CONTROL FOR STRESS PERIOD    6   TIME STEP   20
 
 SOLVING FOR HEAD 
                                                   Max.-Head-Change                         Max.-Flux-Residual
  Residual-Control   Outer-Iter.   Inner-Iter.     Column Row Layer    Maximum-Head-Change  Column Row Layer    Maximum-Flux-Residual          L2-NORM 
          0                 1           2             2    2     1       0.6566777194E-02       2    2    1         0.3424142718E+00      0.7217389002E+00
          0                 2           2             2    2     1      -0.6387698083E-03       2    2    1        -0.3424152367E-01      0.7187737858E-01
          0                 3           1             2    2     1       0.4349784146E-04       2    2    1         0.2396906772E-02      0.5003969820E-02

    ------------------------------------------------
       NWT REQUIRED            3 OUTER ITERATIONS 
       AND A TOTAL OF          5 INNER ITERATIONS.
    ------------------------------------------------

 NO OUTPUT CONTROL FOR STRESS PERIOD    6   TIME STEP   21
 
 SOLVING FOR HEAD 
                                                   Max.-Head-Change                         Max.-Flux-Residual
  Residual-Control   Outer-Iter.   Inner-Iter.     Column Row Layer    Maximum-Head-Change  Column Row Layer    Maximum-Flux-Residual          L2-NORM 
          0                 1           2             2    2     1       0.6534248023E-02       2    2    1         0.3407051332E+00      0.7111045485E+00
          0                 2           2             2    2     1      -0.6356055853E-03       2    2    1        -0.3407060838E-01      0.7085365349E-01
          0                 3           1             2    2     1       0.4328236961E-04       2    2    1         0.2384942702E-02      0.4935933922E-02

    ------------------------------------------------
       NWT REQUIRED            3 OUTER ITERATIONS 
       AND A TOTAL OF          5 INNER ITERATIONS.
    ------------------------------------------------

 NO OUTPUT CONTROL FOR STRESS PERIOD    6   TIME STEP   22
 
 SOLVING FOR HEAD 
                                                   Max.-Head-Change                         Max.-Flux-Residual
  Residual-Control   Outer-Iter.   Inner-Iter.     Column Row Layer    Maximum-Head-Change  Column Row Layer    Maximum-Flux-Residual          L2-NORM 
          0                 1           2             2    2     1       0.6502059395E-02       2    2    1         0.3390139854E+00      0.7015728606E+00
          0                 2           2             2    2     1      -0.6324744891E-03       2    2    1        -0.3390149224E-01      0.6993431494E-01
          0                 3           1             2    2     1       0.4306915421E-04       2    2    1         0.2373104589E-02      0.4874560788E-02

    ------------------------------------------------
       NWT REQUIRED            3 OUTER ITERATIONS 
       AND A TOTAL OF          5 INNER ITERATIONS.
    ------------------------------------------------

 NO OUTPUT CONTROL FOR STRESS PERIOD    6   TIME STEP   23
 
 SOLVING FOR HEAD 
                                                   Max.-Head-Change                         Max.-Flux-Residual
  Residual-Control   Outer-Iter.   Inner-Iter.     Column Row Layer    Maximum-Head-Change  Column Row Layer    Maximum-Flux-Residual          L2-NORM 
          0                 1           2             2    2     1       0.6470379771E-02       2    2    1         0.3373495960E+00      0.6929936172E+00
          0                 2           2             2    2     1      -0.6293929051E-03       2    2    1        -0.3373505193E-01      0.6910634972E-01
          0                 3           1             2    2     1       0.4285930999E-04       2    2    1         0.2361453779E-02      0.4819364993E-02

    ------------------------------------------------
       NWT REQUIRED            3 OUTER ITERATIONS 
       AND A TOTAL OF          5 INNER ITERATIONS.
    ------------------------------------------------

 NO OUTPUT CONTROL FOR STRESS PERIOD    6   TIME STEP   24
 
 SOLVING FOR HEAD 
                                                   Max.-Head-Change                         Max.-Flux-Residual
  Residual-Control   Outer-Iter.   Inner-Iter.     Column Row Layer    Maximum-Head-Change  Column Row Layer    Maximum-Flux-Residual          L2-NORM 
          0                 1           2             2    2     1       0.6439028089E-02       2    2    1         0.3357024960E+00      0.6852484506E+00
          0                 2           2             2    2     1      -0.6263432212E-03       2    2    1        -0.3357034061E-01      0.6835689168E-01
          0                 3           1             2    2     1       0.4265163795E-04       2    2    1         0.2349923992E-02      0.4769498495E-02

    ------------------------------------------------
       NWT REQUIRED            3 OUTER ITERATIONS 
       AND A TOTAL OF          5 INNER ITERATIONS.
    ------------------------------------------------

 NO OUTPUT CONTROL FOR STRESS PERIOD    6   TIME STEP   25
 
 SOLVING FOR HEAD 
                                                   Max.-Head-Change                         Max.-Flux-Residual
  Residual-Control   Outer-Iter.   Inner-Iter.     Column Row Layer    Maximum-Head-Change  Column Row Layer    Maximum-Flux-Residual          L2-NORM 
          0                 1           2             2    2     1       0.6408085591E-02       2    2    1         0.3340769503E+00      0.6782126551E+00
          0                 2           2             2    2     1      -0.6233333403E-03       2    2    1        -0.3340778473E-01      0.6767492385E-01
          0                 3           1             2    2     1       0.4244667653E-04       2    2    1         0.2338545090E-02      0.4723712199E-02

    ------------------------------------------------
       NWT REQUIRED            3 OUTER ITERATIONS 
       AND A TOTAL OF          5 INNER ITERATIONS.
    ------------------------------------------------

 NO OUTPUT CONTROL FOR STRESS PERIOD    6   TIME STEP   26
 
 SOLVING FOR HEAD 
                                                   Max.-Head-Change                         Max.-Flux-Residual
  Residual-Control   Outer-Iter.   Inner-Iter.     Column Row Layer    Maximum-Head-Change  Column Row Layer    Maximum-Flux-Residual          L2-NORM 
          0                 1           2             2    2     1       0.6377545907E-02       2    2    1         0.3324726203E+00      0.6718064656E+00
          0                 2           2             2    2     1      -0.6203626426E-03       2    2    1        -0.3324735047E-01      0.6705263254E-01
          0                 3           1             2    2     1       0.4224438289E-04       2    2    1         0.2327314697E-02      0.4681670411E-02

    ------------------------------------------------
       NWT REQUIRED            3 OUTER ITERATIONS 
       AND A TOTAL OF          5 INNER ITERATIONS.
    ------------------------------------------------

 NO OUTPUT CONTROL FOR STRESS PERIOD    6   TIME STEP   27
 
 SOLVING FOR HEAD 
                                                   Max.-Head-Change                         Max.-Flux-Residual
  Residual-Control   Outer-Iter.   Inner-Iter.     Column Row Layer    Maximum-Head-Change  Column Row Layer    Maximum-Flux-Residual          L2-NORM 
          0                 1           2             2    2     1       0.6347315669E-02       2    2    1         0.3308846241E+00      0.6659357571E+00
          0                 2           2             2    2     1      -0.6174220460E-03       2    2    1        -0.3308854959E-01      0.6648192395E-01
          0                 3           1             2    2     1       0.4204413955E-04       2    2    1         0.2316198653E-02      0.4643465947E-02

    ------------------------------------------------
       NWT REQUIRED            3 OUTER ITERATIONS 
       AND A TOTAL OF          5 INNER ITERATIONS.
    ------------------------------------------------

 NO OUTPUT CONTROL FOR STRESS PERIOD    6   TIME STEP   28
 
 SOLVING FOR HEAD 
                                                   Max.-Head-Change                         Max.-Flux-Residual
  Residual-Control   Outer-Iter.   Inner-Iter.     Column Row Layer    Maximum-Head-Change  Column Row Layer    Maximum-Flux-Residual          L2-NORM 
          0                 1           2             2    2     1       0.6317563895E-02       2    2    1         0.3293217758E+00      0.6605483155E+00
          0                 2           2             2    2     1      -0.6145284404E-03       2    2    1        -0.3293226356E-01      0.6596161646E-01
          0                 3           1             2    2     1       0.4184753270E-04       2    2    1         0.2305258633E-02      0.4605559087E-02

    ------------------------------------------------
       NWT REQUIRED            3 OUTER ITERATIONS 
       AND A TOTAL OF          5 INNER ITERATIONS.
    ------------------------------------------------

 NO OUTPUT CONTROL FOR STRESS PERIOD    6   TIME STEP   29
 
 SOLVING FOR HEAD 
                                                   Max.-Head-Change                         Max.-Flux-Residual
  Residual-Control   Outer-Iter.   Inner-Iter.     Column Row Layer    Maximum-Head-Change  Column Row Layer    Maximum-Flux-Residual          L2-NORM 
          0                 1           2             2    2     1       0.5801917560E-02       2    2    1         0.3023583165E+00      0.6048554861E+00
          0                 2           2             2    2     1      -0.5643581492E-03       2    2    1        -0.3023590139E-01      0.6053286126E-01
          0                 3           1             2    2     1       0.3843068754E-04       2    2    1         0.2116513348E-02      0.4236199283E-02

    ------------------------------------------------
       NWT REQUIRED            3 OUTER ITERATIONS 
       AND A TOTAL OF          5 INNER ITERATIONS.
    ------------------------------------------------

 NO OUTPUT CONTROL FOR STRESS PERIOD    6   TIME STEP   30



 STREAM LISTING     PERIOD      6   STEP       30

 LAYER ROW COL. STREAM  RCH.  FLOW INTO     FLOW TO   FLOW OUT OF   OVRLND.     DIRECT     STREAM       STREAM     STREAM     STREAM   STREAMBED  STREAMBED
                SEG.NO.  NO.  STRM. RCH.    AQUIFER    STRM. RCH.    RUNOFF     PRECIP       ET          HEAD       DEPTH      WIDTH   CONDCTNC.   GRADIENT

   1    1    1     1     1    6.9266E+01  4.0352E-01   6.8863E+01  0.000E+00  0.000E+00  0.000E+00  1.09468E+03  1.634E+00  1.935E+01  8.707E-02  1.545E+00
   1    2    2     1     2    6.8863E+01  6.2503E-01   6.8238E+01  0.000E+00  0.000E+00  0.000E+00  1.08969E+03  1.628E+00  1.929E+01  1.350E-01  1.543E+00
   1    3    3     1     3    6.8238E+01  5.3316E-01   6.7704E+01  0.000E+00  0.000E+00  0.000E+00  1.08404E+03  1.622E+00  1.923E+01  1.154E-01  1.541E+00
   1    3    4     1     4    6.7704E+01  4.9106E-01   6.7213E+01  0.000E+00  0.000E+00  0.000E+00  1.07902E+03  1.616E+00  1.917E+01  1.064E-01  1.539E+00
   1    4    5     2     1    6.5213E+01  4.0112E-01   6.4812E+01  0.000E+00  0.000E+00  0.000E+00  1.07408E+03  2.143E+00  1.200E+01  7.800E-02  1.714E+00
   1    5    6     2     2    6.4812E+01  3.0814E-01   6.4504E+01  0.000E+00  0.000E+00  0.000E+00  1.06865E+03  2.136E+00  1.200E+01  6.000E-02  1.712E+00
   1    6    6     2     3    6.4504E+01  3.0777E-01   6.4196E+01  0.000E+00  0.000E+00  0.000E+00  1.06392E+03  2.129E+00  1.200E+01  6.000E-02  1.710E+00
   1    7    6     2     4    6.4196E+01  3.0740E-01   6.3889E+01  0.000E+00  0.000E+00  0.000E+00  1.05920E+03  2.123E+00  1.200E+01  6.000E-02  1.708E+00
   1    8    6     2     5    6.3889E+01  3.0704E-01   6.3582E+01  0.000E+00  0.000E+00  0.000E+00  1.05448E+03  2.117E+00  1.200E+01  6.000E-02  1.706E+00
   1    3    5     3     1    2.0000E+00  2.8252E-01   1.7175E+00  0.000E+00  0.000E+00  0.000E+00  1.07555E+03  1.909E+00  9.636E+00  7.227E-02  1.955E+00
   1    3    6     3     2    1.7175E+00  2.4905E-01   1.4684E+00  0.000E+00  0.000E+00  0.000E+00  1.07264E+03  1.727E+00  8.909E+00  6.682E-02  1.864E+00
   1    3    7     3     3    1.4684E+00  1.9718E-01   1.2712E+00  0.000E+00  0.000E+00  0.000E+00  1.06987E+03  1.555E+00  8.218E+00  5.547E-02  1.777E+00
   1    4    8     3     4    1.2712E+00  2.2567E-01   1.0456E+00  0.000E+00  0.000E+00  0.000E+00  1.06682E+03  1.364E+00  7.455E+00  6.709E-02  1.682E+00
   1    5    8     3     5    1.0456E+00  1.5790E-01   8.8768E-01  0.000E+00  0.000E+00  0.000E+00  1.06362E+03  1.164E+00  6.655E+00  4.991E-02  1.582E+00
   1    6    8     3     6    8.8768E-01  5.5980E-02   8.3170E-01  0.000E+00  0.000E+00  0.000E+00  1.06158E+03  1.036E+00  6.145E+00  1.844E-02  1.518E+00
   1    5   10     4     1    1.0000E+01  9.0919E-02   9.9091E+00  0.000E+00  0.000E+00  0.000E+00  1.07836E+03  6.368E-01  1.000E+01  2.500E-02  1.212E+00
   1    5    9     4     2    9.9091E+00  1.8158E-01   9.7275E+00  0.000E+00  0.000E+00  0.000E+00  1.07154E+03  6.315E-01  1.000E+01  5.000E-02  1.211E+00
   1    6    8     4     3    9.7275E+00  1.2689E-01   9.6006E+00  0.000E+00  0.000E+00  0.000E+00  1.06381E+03  6.256E-01  1.000E+01  3.500E-02  1.209E+00
   1    6    8     5     1    1.0432E+01  2.2686E-01   1.0205E+01  0.000E+00  0.000E+00  0.000E+00  1.05868E+03  6.790E-01  1.542E+01  6.166E-02  1.226E+00
   1    7    7     5     2    1.0205E+01  2.7894E-01   9.9265E+00  0.000E+00  0.000E+00  0.000E+00  1.05417E+03  6.732E-01  1.519E+01  7.594E-02  1.224E+00
   1    8    7     5     3    9.9265E+00  1.9221E-01   9.7343E+00  0.000E+00  0.000E+00  0.000E+00  1.04992E+03  6.676E-01  1.497E+01  5.241E-02  1.223E+00
   1    8    6     5     4    9.7343E+00  1.3577E-01   9.5985E+00  0.000E+00  0.000E+00  0.000E+00  1.04691E+03  6.637E-01  1.482E+01  3.706E-02  1.221E+00
   1    9    6     6     1    7.3180E+01  3.1938E-01   7.2861E+01  0.000E+00  0.000E+00  0.000E+00  1.04505E+03  2.323E+00  1.200E+01  6.000E-02  1.774E+00
   1   10    7     6     2    7.2861E+01  3.1901E-01   7.2542E+01  0.000E+00  0.000E+00  0.000E+00  1.04050E+03  2.317E+00  1.200E+01  6.000E-02  1.772E+00
   1   11    7     6     3    7.2542E+01  3.1864E-01   7.2223E+01  0.000E+00  0.000E+00  0.000E+00  1.03595E+03  2.311E+00  1.200E+01  6.000E-02  1.770E+00
   1   12    7     6     4    7.2223E+01  3.1828E-01   7.1905E+01  0.000E+00  0.000E+00  0.000E+00  1.03140E+03  2.305E+00  1.200E+01  6.000E-02  1.768E+00
   1   13    7     6     5    7.1905E+01  2.5175E-02   7.1880E+01  0.000E+00  0.000E+00  0.000E+00  1.02821E+03  2.301E+00  1.200E+01  2.400E-02  3.496E-01
   1   14    9     7     1    1.5000E+02  1.3359E+00   1.4866E+02  0.000E+00  0.000E+00  0.000E+00  1.03987E+03  2.288E+00  5.529E+01  5.593E-01  7.962E-01
   1   13    8     7     2    1.4866E+02  1.8204E+00   1.4684E+02  0.000E+00  0.000E+00  0.000E+00  1.03478E+03  2.279E+00  5.526E+01  6.148E-01  9.870E-01
   1   13    7     7     3    1.4684E+02  1.4121E+00   1.4543E+02  0.000E+00  0.000E+00  0.000E+00  1.02969E+03  2.271E+00  5.522E+01  5.585E-01  8.429E-01
   1   13    6     8     1    2.1731E+02  1.0461E+00   2.1627E+02  0.000E+00  0.000E+00  0.000E+00  1.02511E+03  3.234E+00  4.689E+01  4.779E-01  7.297E-01
   1   13    5     8     2    2.1627E+02  2.2417E-01   2.1604E+02  0.000E+00  0.000E+00  0.000E+00  1.01886E+03  3.230E+00  4.684E+01  4.773E-01  1.565E-01
   1   13    4     8     3    2.1604E+02 -2.3134E+00   2.1835E+02  0.000E+00  0.000E+00  0.000E+00  1.01261E+03  3.236E+00  4.693E+01  4.782E+00 -1.613E-01
   1   13    3     8     4    2.1835E+02 -3.4955E+00   2.2185E+02  0.000E+00  0.000E+00  0.000E+00  1.00638E+03  3.252E+00  4.716E+01  4.806E+00 -2.424E-01
   1   13    2     8     5    2.2185E+02 -2.5353E+00   2.2439E+02  0.000E+00  0.000E+00  0.000E+00  1.00014E+03  3.269E+00  4.740E+01  4.830E+00 -1.750E-01
   1   13    1     8     6    2.2439E+02 -1.9071E+00   2.2629E+02  0.000E+00  0.000E+00  0.000E+00  9.95156E+02  3.281E+00  4.758E+01  2.909E+00 -2.185E-01
   1    8    6     9     1    0.0000E+00  0.0000E+00   0.0000E+00  0.000E+00  0.000E+00  0.000E+00  1.07875E+03  0.000E+00  4.000E+00  0.000E+00  1.000E+00
   1    8    5     9     2    0.0000E+00  0.0000E+00   0.0000E+00  0.000E+00  0.000E+00  0.000E+00  1.07825E+03  0.000E+00  4.000E+00  0.000E+00  1.000E+00





UNSATURATED ZONE PACKAGE VOLUMETRIC BUDGET FOR  TIME STEP    30 STRESS PERIOD    6
  ------------------------------------------------------------------------------



     CUMULATIVE VOLUMES      L**3       RATES FOR THIS TIME STEP      L**3/T
     ------------------                 ------------------------

           IN:                                      IN:
           ---                                      ---
        INFILTRATION =    58567696.4111          INFILTRATION =           4.4075

          OUT:                                     OUT:
          ----                                     ----
              UZF ET =    39779360.7329                UZF ET =           4.4075
        UZF RECHARGE =       73224.0000          UZF RECHARGE =       0.0000E+00

            IN - OUT =    18715111.6782              IN - OUT =       0.0000E+00

          STORAGE:                                 STORAGE:
          --------                                 --------
      STORAGE CHANGE =    18715111.4112        STORAGE CHANGE =      -1.8996E-14

 PERCENT DISCREPANCY IS DIFFERENCE BETWEEN IN-OUT MINUS CHANGE IN STORAGE
 DIVIDED BY THE AVERAGE OF IN AND OUT TIMES 100

 PERCENT DISCREPANCY =           0.00     PERCENT DISCREPANCY =           0.00






1
  VOLUMETRIC BUDGET FOR ENTIRE MODEL AT END OF TIME STEP   30, STRESS PERIOD   6
  ------------------------------------------------------------------------------

     CUMULATIVE VOLUMES      L**3       RATES FOR THIS TIME STEP      L**3/T
     ------------------                 ------------------------

           IN:                                      IN:
           ---                                      ---
               AG WELLS  =           0.0000                 AG WELLS  =           0.0000
        DIVERSION SEGMEN =      535838.9375          DIVERSION SEGMEN =           0.0000
    TS         GW IRRIGA =           0.0000      TS         GW IRRIGA =           0.0000
    TION         SW IRRI =           0.0000      TION         SW IRRI =           0.0000
    GATION      SYSTEM L =           0.0000      GATION      SYSTEM L =           0.0000
    OSSES GW      SYSTEM =           0.0000      OSSES GW      SYSTEM =           0.0000

                TOTAL IN =      535838.9375                  TOTAL IN =           0.0000

          OUT:                                     OUT:
          ----                                     ----
               AG WELLS  =           0.0000                 AG WELLS  =           0.0000
        DIVERSION SEGMEN =           0.0000          DIVERSION SEGMEN =           0.0000
    TS         GW IRRIGA =           0.0000      TS         GW IRRIGA =           0.0000
    TION         SW IRRI =      535849.6250      TION         SW IRRI =           0.0000
    GATION      SYSTEM L =           0.0000      GATION      SYSTEM L =           0.0000
    OSSES GW      SYSTEM =           0.0000      OSSES GW      SYSTEM =           0.0000

               TOTAL OUT =      535849.6250                 TOTAL OUT =           0.0000

                IN - OUT =         -10.6875                  IN - OUT =           0.0000

     PERCENT DISCREPANCY =          -0.00         PERCENT DISCREPANCY =           0.00



1
  VOLUMETRIC BUDGET FOR ENTIRE MODEL AT END OF TIME STEP   30, STRESS PERIOD   6
  ------------------------------------------------------------------------------

     CUMULATIVE VOLUMES      L**3       RATES FOR THIS TIME STEP      L**3/T
     ------------------                 ------------------------

           IN:                                      IN:
           ---                                      ---
             STORAGE     =     9015718.0000               STORAGE     =           0.4909
       CONSTANT HEAD     =           0.0000         CONSTANT HEAD     =           0.0000
     HEAD DEP BOUNDS     =     3781787.7500       HEAD DEP BOUNDS     =           0.2858
      STREAM LEAKAGE     =   161372240.0000        STREAM LEAKAGE     =          13.2248
        UZF RECHARGE     =       73223.9531          UZF RECHARGE     =           0.0000
               GW ET     =           0.0000                 GW ET     =           0.0000
     SURFACE LEAKAGE     =           0.0000       SURFACE LEAKAGE     =           0.0000
           AG WELLS      =           0.0000             AG WELLS      =           0.0000

                TOTAL IN =   174242960.0000                  TOTAL IN =          14.0015

          OUT:                                     OUT:
          ----                                     ----
             STORAGE     =    32332226.0000               STORAGE     =           2.9759
       CONSTANT HEAD     =           0.0000         CONSTANT HEAD     =           0.0000
     HEAD DEP BOUNDS     =     3861335.0000       HEAD DEP BOUNDS     =           0.2969
      STREAM LEAKAGE     =   137112784.0000        STREAM LEAKAGE     =          10.2513
        UZF RECHARGE     =           0.0000          UZF RECHARGE     =           0.0000
               GW ET     =      942739.8750                 GW ET     =           0.4782
     SURFACE LEAKAGE     =           0.0000       SURFACE LEAKAGE     =           0.0000
           AG WELLS      =           0.0000             AG WELLS      =           0.0000

               TOTAL OUT =   174249072.0000                 TOTAL OUT =          14.0022

                IN - OUT =       -6112.0000                  IN - OUT =      -7.0858E-04

     PERCENT DISCREPANCY =          -0.00         PERCENT DISCREPANCY =          -0.01






         TIME SUMMARY AT END OF TIME STEP   30 IN STRESS PERIOD    6
                    SECONDS     MINUTES      HOURS       DAYS        YEARS
                    -----------------------------------------------------------
   TIME STEP LENGTH  87667.      1461.1      24.352      1.0147     2.77799E-03
 STRESS PERIOD TIME 2.63000E+06  43833.      730.56      30.440     8.33397E-02
         TOTAL TIME 1.32364E+07 2.20607E+05  3676.8      153.20     0.41944    
1
1
                            STRESS PERIOD NO.    7, LENGTH =   2630000.    
                            -----------------------------------------------

                              NUMBER OF TIME STEPS =    30

                               MULTIPLIER FOR DELT =     1.000

                            INITIAL TIME STEP SIZE =   87666.66    

 REUSING NON-PARAMETER GHB CELLS FROM LAST STRESS PERIOD

      2 GHB CELLS

 REUSING STREAM SEGMENT DATA FROM LAST STRESS PERIOD



            AREAL INFILTRATION RATE
 READING ON UNIT   19 WITH FORMAT: (10F4.0)            

            1           2           3           4           5           6           7           8           9          10
 ........................................................................................................................
   1   1.2000E-09   0.000       0.000       0.000       0.000       0.000       0.000       0.000       0.000       0.000    
   2   2.1000E-09  2.0000E-09  8.0000E-10  8.5000E-09   0.000       0.000       0.000       0.000       0.000       0.000    
   3   5.0000E-10  1.1000E-09  8.8000E-09  5.5000E-09   0.000       0.000       0.000       0.000       0.000       0.000    
   4   8.5000E-09  1.1000E-09  1.1000E-09  1.1000E-09  2.0000E-09   0.000       0.000       0.000       0.000       0.000    
   5   8.5000E-09  1.1000E-09  1.1000E-09  1.1000E-09  1.1000E-09   0.000       0.000       0.000       0.000       0.000    
   6   8.5000E-09  5.2000E-09  2.1000E-09  1.1000E-09  1.5000E-09   0.000       0.000       0.000       0.000       0.000    
   7   8.5000E-09  5.2000E-09  2.1000E-09  1.2000E-09  2.0000E-09   0.000       0.000       0.000       0.000       0.000    
   8   5.0000E-10  5.2000E-09  2.1000E-09  1.2000E-09  5.0000E-09   0.000       0.000       0.000       0.000       0.000    
   9   5.0000E-10  5.2000E-09  2.1000E-09  1.2000E-09  5.0000E-09   0.000       0.000       0.000       0.000       0.000    
  10   5.0000E-10  5.2000E-09  2.1000E-09  1.2000E-09  5.8000E-09   0.000       0.000       0.000       0.000       0.000    
  11   1.0000E-10  1.1000E-09  1.1000E-09  1.2000E-09  5.0000E-09   0.000       0.000       0.000       0.000       0.000    
  12   1.1000E-09  1.1000E-09  1.1000E-09  1.1000E-09  2.0000E-09   0.000       0.000       0.000       0.000       0.000    
  13   1.1000E-09  2.2000E-09  2.2000E-09  2.1000E-09  1.0000E-09   0.000       0.000       0.000       0.000       0.000    
  14   2.0000E-10  5.5000E-09  5.5000E-09  5.2000E-09  1.0000E-09   0.000       0.000       0.000       0.000       0.000    
  15    0.000      8.8000E-09  8.8000E-09   0.000       0.000       0.000       0.000       0.000       0.000       0.000    

                  ET RATE =  1.500000E-07

 USING ET EXTINCTION DEPTH FROM PREVIOUS STRESS PERIOD. CURRENT PERIOD IS:       7

 USING EXTINCTION WATER CONTENT FROM PREVIOUS STRESS PERIOD. CURRENT PERIOD IS:       7

 USING AIR ENTRY PRESSURE FROM PREVIOUS STRESS PERIOD. CURRENT PERIOD IS:       7

 USING ROOT PRESSURE HEAD FROM PREVIOUS STRESS PERIOD. CURRENT PERIOD IS:       7

 USING ROOT ACTIVITY FROM PREVIOUS STRESS PERIOD. CURRENT PERIOD IS:       7

 PROCESSING AG STRESS PERIOD DATA

 READING AG STRESS PERIOD DATA

 READING IRRIGATION SEGMENT

 READING IRRIGATION WELL

 READING SUPPLEMENTAL WELL

 END PROCESSING AG STRESS PERIOD DATA OPTIONS
 
 SOLVING FOR HEAD 
                                                   Max.-Head-Change                         Max.-Flux-Residual
  Residual-Control   Outer-Iter.   Inner-Iter.     Column Row Layer    Maximum-Head-Change  Column Row Layer    Maximum-Flux-Residual          L2-NORM 
          0                 1           2             3   13     1      -0.1115512979E-01       3   13    1        -0.7141400055E+00      0.1137404481E+01
          0                 2           2             3   13     1       0.1061695654E-02       3   13    1         0.6988293314E-01      0.1121385584E+00
          0                 3           1             3   13     1      -0.7011275400E-04       4   13    1        -0.4749091013E-02      0.7703434129E-02

    ------------------------------------------------
       NWT REQUIRED            3 OUTER ITERATIONS 
       AND A TOTAL OF          5 INNER ITERATIONS.
    ------------------------------------------------

 NO OUTPUT CONTROL FOR STRESS PERIOD    7   TIME STEP    1
 
 SOLVING FOR HEAD 
                                                   Max.-Head-Change                         Max.-Flux-Residual
  Residual-Control   Outer-Iter.   Inner-Iter.     Column Row Layer    Maximum-Head-Change  Column Row Layer    Maximum-Flux-Residual          L2-NORM 
          0                 1           2             3   13     1      -0.9064943844E-02       3   13    1        -0.5802276345E+00      0.9728690333E+00
          0                 2           2             3   13     1       0.8628672344E-03       3   13    1         0.5678574915E-01      0.9601268367E-01
          0                 3           1             3   13     1      -0.5699135209E-04       3   13    1        -0.3856190298E-02      0.6604905565E-02

    ------------------------------------------------
       NWT REQUIRED            3 OUTER ITERATIONS 
       AND A TOTAL OF          5 INNER ITERATIONS.
    ------------------------------------------------

 NO OUTPUT CONTROL FOR STRESS PERIOD    7   TIME STEP    2
 
 SOLVING FOR HEAD 
                                                   Max.-Head-Change                         Max.-Flux-Residual
  Residual-Control   Outer-Iter.   Inner-Iter.     Column Row Layer    Maximum-Head-Change  Column Row Layer    Maximum-Flux-Residual          L2-NORM 
          0                 1           2             3   13     1      -0.7367840473E-02       3   13    1        -0.4715091865E+00      0.8472554490E+00
          0                 2           2             3   13     1       0.7014478038E-03       3   13    1         0.4615375733E-01      0.8372714358E-01
          0                 3           1             3   13     1      -0.4633941164E-04       3   13    1        -0.3134845909E-02      0.5769640479E-02

    ------------------------------------------------
       NWT REQUIRED            3 OUTER ITERATIONS 
       AND A TOTAL OF          5 INNER ITERATIONS.
    ------------------------------------------------

 NO OUTPUT CONTROL FOR STRESS PERIOD    7   TIME STEP    3
 
 SOLVING FOR HEAD 
                                                   Max.-Head-Change                         Max.-Flux-Residual
  Residual-Control   Outer-Iter.   Inner-Iter.     Column Row Layer    Maximum-Head-Change  Column Row Layer    Maximum-Flux-Residual          L2-NORM 
          0                 1           2             3   13     1      -0.5989584382E-02       3   13    1        -0.3832261162E+00      0.7529196249E+00
          0                 2           2             3   13     1       0.5703397177E-03       3   13    1         0.3751918845E-01      0.7452161944E-01
          0                 3           1             3   13     1      -0.3769690939E-04       3   13    1        -0.2549635616E-02      0.5146583946E-02

    ------------------------------------------------
       NWT REQUIRED            3 OUTER ITERATIONS 
       AND A TOTAL OF          5 INNER ITERATIONS.
    ------------------------------------------------

 NO OUTPUT CONTROL FOR STRESS PERIOD    7   TIME STEP    4
 
 SOLVING FOR HEAD 
                                                   Max.-Head-Change                         Max.-Flux-Residual
  Residual-Control   Outer-Iter.   Inner-Iter.     Column Row Layer    Maximum-Head-Change  Column Row Layer    Maximum-Flux-Residual          L2-NORM 
          0                 1           2             2    2     1       0.4993372031E-02       3   13    1        -0.3115318042E+00      0.6832843275E+00
          0                 2           2             2    2     1      -0.4857196461E-03       3   13    1         0.3050720539E-01      0.6774408214E-01
          0                 3           1             2    2     1       0.3307570058E-04       3   13    1        -0.2070971395E-02      0.4687569866E-02

    ------------------------------------------------
       NWT REQUIRED            3 OUTER ITERATIONS 
       AND A TOTAL OF          5 INNER ITERATIONS.
    ------------------------------------------------

 OUTPUT CONTROL FOR STRESS PERIOD    7   TIME STEP    5
    PRINT BUDGET
    SAVE BUDGET
 UBDSV1 SAVING "         STORAGE" ON UNIT 102 AT TIME STEP  5, STRESS PERIOD   7
 UBDSV2 SAVING "   CONSTANT HEAD" ON UNIT 102 AT TIME STEP  5, STRESS PERIOD   7
 UBDSV1 SAVING "FLOW RIGHT FACE " ON UNIT 102 AT TIME STEP  5, STRESS PERIOD   7
 UBDSV1 SAVING "FLOW FRONT FACE " ON UNIT 102 AT TIME STEP  5, STRESS PERIOD   7

  HEAD DEP BOUNDS   PERIOD    7   STEP     5
 BOUNDARY      1   LAYER   1   ROW    13   COL     1   RATE   -0.296792    
 BOUNDARY      2   LAYER   1   ROW    14   COL     9   RATE    0.285763    



 STREAM LISTING     PERIOD      7   STEP        5

 LAYER ROW COL. STREAM  RCH.  FLOW INTO     FLOW TO   FLOW OUT OF   OVRLND.     DIRECT     STREAM       STREAM     STREAM     STREAM   STREAMBED  STREAMBED
                SEG.NO.  NO.  STRM. RCH.    AQUIFER    STRM. RCH.    RUNOFF     PRECIP       ET          HEAD       DEPTH      WIDTH   CONDCTNC.   GRADIENT

   1    1    1     1     1    6.2250E+01  3.7978E-01   6.1870E+01  0.000E+00  0.000E+00  0.000E+00  1.09460E+03  1.553E+00  1.854E+01  8.342E-02  1.518E+00
   1    2    2     1     2    6.1870E+01  5.8817E-01   6.1282E+01  0.000E+00  0.000E+00  0.000E+00  1.08961E+03  1.547E+00  1.848E+01  1.294E-01  1.516E+00
   1    3    3     1     3    6.1282E+01  5.0163E-01   6.0781E+01  0.000E+00  0.000E+00  0.000E+00  1.08396E+03  1.540E+00  1.841E+01  1.105E-01  1.513E+00
   1    3    4     1     4    6.0781E+01  4.6194E-01   6.0319E+01  0.000E+00  0.000E+00  0.000E+00  1.07894E+03  1.534E+00  1.836E+01  1.019E-01  1.511E+00
   1    4    5     2     1    5.8319E+01  3.9026E-01   5.7928E+01  0.000E+00  0.000E+00  0.000E+00  1.07394E+03  2.003E+00  1.200E+01  7.800E-02  1.668E+00
   1    5    6     2     2    5.7928E+01  2.9977E-01   5.7629E+01  0.000E+00  0.000E+00  0.000E+00  1.06851E+03  1.996E+00  1.200E+01  6.000E-02  1.665E+00
   1    6    6     2     3    5.7629E+01  2.9940E-01   5.7329E+01  0.000E+00  0.000E+00  0.000E+00  1.06378E+03  1.990E+00  1.200E+01  6.000E-02  1.663E+00
   1    7    6     2     4    5.7329E+01  2.9903E-01   5.7030E+01  0.000E+00  0.000E+00  0.000E+00  1.05906E+03  1.984E+00  1.200E+01  6.000E-02  1.661E+00
   1    8    6     2     5    5.7030E+01  2.9865E-01   5.6732E+01  0.000E+00  0.000E+00  0.000E+00  1.05434E+03  1.978E+00  1.200E+01  6.000E-02  1.659E+00
   1    3    5     3     1    2.0000E+00  2.8252E-01   1.7175E+00  0.000E+00  0.000E+00  0.000E+00  1.07555E+03  1.909E+00  9.636E+00  7.227E-02  1.955E+00
   1    3    6     3     2    1.7175E+00  2.4905E-01   1.4684E+00  0.000E+00  0.000E+00  0.000E+00  1.07264E+03  1.727E+00  8.909E+00  6.682E-02  1.864E+00
   1    3    7     3     3    1.4684E+00  1.9718E-01   1.2712E+00  0.000E+00  0.000E+00  0.000E+00  1.06987E+03  1.555E+00  8.218E+00  5.547E-02  1.777E+00
   1    4    8     3     4    1.2712E+00  2.2567E-01   1.0456E+00  0.000E+00  0.000E+00  0.000E+00  1.06682E+03  1.364E+00  7.455E+00  6.709E-02  1.682E+00
   1    5    8     3     5    1.0456E+00  1.5790E-01   8.8768E-01  0.000E+00  0.000E+00  0.000E+00  1.06362E+03  1.164E+00  6.655E+00  4.991E-02  1.582E+00
   1    6    8     3     6    8.8768E-01  5.5980E-02   8.3170E-01  0.000E+00  0.000E+00  0.000E+00  1.06158E+03  1.036E+00  6.145E+00  1.844E-02  1.518E+00
   1    5   10     4     1    1.0000E+01  9.0919E-02   9.9091E+00  0.000E+00  0.000E+00  0.000E+00  1.07836E+03  6.368E-01  1.000E+01  2.500E-02  1.212E+00
   1    5    9     4     2    9.9091E+00  1.8158E-01   9.7275E+00  0.000E+00  0.000E+00  0.000E+00  1.07154E+03  6.315E-01  1.000E+01  5.000E-02  1.211E+00
   1    6    8     4     3    9.7275E+00  1.2689E-01   9.6006E+00  0.000E+00  0.000E+00  0.000E+00  1.06381E+03  6.256E-01  1.000E+01  3.500E-02  1.209E+00
   1    6    8     5     1    1.0432E+01  2.2686E-01   1.0205E+01  0.000E+00  0.000E+00  0.000E+00  1.05868E+03  6.790E-01  1.542E+01  6.166E-02  1.226E+00
   1    7    7     5     2    1.0205E+01  2.7894E-01   9.9265E+00  0.000E+00  0.000E+00  0.000E+00  1.05417E+03  6.732E-01  1.519E+01  7.594E-02  1.224E+00
   1    8    7     5     3    9.9265E+00  1.9221E-01   9.7343E+00  0.000E+00  0.000E+00  0.000E+00  1.04992E+03  6.676E-01  1.497E+01  5.241E-02  1.223E+00
   1    8    6     5     4    9.7343E+00  1.3577E-01   9.5985E+00  0.000E+00  0.000E+00  0.000E+00  1.04691E+03  6.637E-01  1.482E+01  3.706E-02  1.221E+00
   1    9    6     6     1    6.6330E+01  3.1138E-01   6.6019E+01  0.000E+00  0.000E+00  0.000E+00  1.04492E+03  2.190E+00  1.200E+01  6.000E-02  1.730E+00
   1   10    7     6     2    6.6019E+01  3.1101E-01   6.5708E+01  0.000E+00  0.000E+00  0.000E+00  1.04037E+03  2.184E+00  1.200E+01  6.000E-02  1.728E+00
   1   11    7     6     3    6.5708E+01  3.1064E-01   6.5397E+01  0.000E+00  0.000E+00  0.000E+00  1.03581E+03  2.177E+00  1.200E+01  6.000E-02  1.726E+00
   1   12    7     6     4    6.5397E+01  3.1027E-01   6.5087E+01  0.000E+00  0.000E+00  0.000E+00  1.03126E+03  2.171E+00  1.200E+01  6.000E-02  1.724E+00
   1   13    7     6     5    6.5087E+01  2.1891E-02   6.5065E+01  0.000E+00  0.000E+00  0.000E+00  1.02808E+03  2.168E+00  1.200E+01  2.400E-02  3.040E-01
   1   14    9     7     1    1.5000E+02  1.3359E+00   1.4866E+02  0.000E+00  0.000E+00  0.000E+00  1.03987E+03  2.288E+00  5.529E+01  5.593E-01  7.962E-01
   1   13    8     7     2    1.4866E+02  1.8198E+00   1.4684E+02  0.000E+00  0.000E+00  0.000E+00  1.03478E+03  2.279E+00  5.526E+01  6.148E-01  9.867E-01
   1   13    7     7     3    1.4684E+02  1.4103E+00   1.4543E+02  0.000E+00  0.000E+00  0.000E+00  1.02969E+03  2.271E+00  5.522E+01  5.585E-01  8.418E-01
   1   13    6     8     1    2.1050E+02  1.0138E+00   2.0949E+02  0.000E+00  0.000E+00  0.000E+00  1.02507E+03  3.196E+00  4.634E+01  4.722E-01  7.157E-01
   1   13    5     8     2    2.0949E+02  2.0191E-01   2.0928E+02  0.000E+00  0.000E+00  0.000E+00  1.01882E+03  3.192E+00  4.629E+01  4.717E-01  1.427E-01
   1   13    4     8     3    2.0928E+02 -2.3098E+00   2.1159E+02  0.000E+00  0.000E+00  0.000E+00  1.01257E+03  3.198E+00  4.637E+01  4.726E+00 -1.629E-01
   1   13    3     8     4    2.1159E+02 -3.4684E+00   2.1506E+02  0.000E+00  0.000E+00  0.000E+00  1.00634E+03  3.215E+00  4.661E+01  4.750E+00 -2.434E-01
   1   13    2     8     5    2.1506E+02 -2.6287E+00   2.1769E+02  0.000E+00  0.000E+00  0.000E+00  1.00011E+03  3.232E+00  4.686E+01  4.775E+00 -1.835E-01
   1   13    1     8     6    2.1769E+02 -1.9869E+00   2.1968E+02  0.000E+00  0.000E+00  0.000E+00  9.95120E+02  3.245E+00  4.705E+01  2.877E+00 -2.302E-01
   1    8    6     9     1    0.0000E+00  0.0000E+00   0.0000E+00  0.000E+00  0.000E+00  0.000E+00  1.07875E+03  0.000E+00  4.000E+00  0.000E+00  1.000E+00
   1    8    5     9     2    0.0000E+00  0.0000E+00   0.0000E+00  0.000E+00  0.000E+00  0.000E+00  1.07825E+03  0.000E+00  4.000E+00  0.000E+00  1.000E+00



 UBDSV3 SAVING "           GW ET" ON UNIT  61 AT TIME STEP  5, STRESS PERIOD   7
 UBDSV3 SAVING "    UZF RECHARGE" ON UNIT  61 AT TIME STEP  5, STRESS PERIOD   7
 UBDSV3 SAVING " SURFACE LEAKAGE" ON UNIT  61 AT TIME STEP  5, STRESS PERIOD   7
 UBDSV3 SAVING "       HORT+DUNN" ON UNIT  61 AT TIME STEP  5, STRESS PERIOD   7
 UBDSV3 SAVING "  STORAGE CHANGE" ON UNIT  61 AT TIME STEP  5, STRESS PERIOD   7


UNSATURATED ZONE PACKAGE VOLUMETRIC BUDGET FOR  TIME STEP     5 STRESS PERIOD    7
  ------------------------------------------------------------------------------



     CUMULATIVE VOLUMES      L**3       RATES FOR THIS TIME STEP      L**3/T
     ------------------                 ------------------------

           IN:                                      IN:
           ---                                      ---
        INFILTRATION =    60499650.5042          INFILTRATION =           4.4075

          OUT:                                     OUT:
          ----                                     ----
              UZF ET =    41711314.8259                UZF ET =           4.4075
        UZF RECHARGE =       73224.0000          UZF RECHARGE =       0.0000E+00

            IN - OUT =    18715111.6782              IN - OUT =       0.0000E+00

          STORAGE:                                 STORAGE:
          --------                                 --------
      STORAGE CHANGE =    18715111.4112        STORAGE CHANGE =       8.3099E-15

 PERCENT DISCREPANCY IS DIFFERENCE BETWEEN IN-OUT MINUS CHANGE IN STORAGE
 DIVIDED BY THE AVERAGE OF IN AND OUT TIMES 100

 PERCENT DISCREPANCY =           0.00     PERCENT DISCREPANCY =           0.00






 

            AG WELLS      PERIOD    7   STEP   5
 AG WELL      1   LAYER   1   ROW     6   COL     4   RATE     0.00000    
 AG WELL      2   LAYER   1   ROW     6   COL     5   RATE     0.00000    
 AG WELL      3   LAYER   1   ROW     7   COL     4   RATE     0.00000    
 AG WELL      4   LAYER   1   ROW     7   COL     5   RATE     0.00000    
 AG WELL      5   LAYER   1   ROW     8   COL     4   RATE     0.00000    
 AG WELL      6   LAYER   1   ROW     8   COL     5   RATE     0.00000    
 
 

   DIVERSION SEGMENTS     PERIOD    7   STEP   5
 SEGMENT      9   RATE     0.00000    
 
 

        SW IRRIGATION     PERIOD    7   STEP   5
 SEGMENT      9   ROW     6   COL     4   RATE     0.00000    
 SEGMENT      9   ROW     6   COL     5   RATE     0.00000    
 SEGMENT      9   ROW     7   COL     4   RATE     0.00000    
 SEGMENT      9   ROW     7   COL     5   RATE     0.00000    
 SEGMENT      9   ROW     8   COL     4   RATE     0.00000    
 SEGMENT      9   ROW     8   COL     5   RATE     0.00000    
 
 

        GW IRRIGATION     PERIOD    7   STEP   5
 AG WELL      1   ROW     6   COL     4   RATE     0.00000    
 AG WELL      2   ROW     6   COL     5   RATE     0.00000    
 AG WELL      3   ROW     7   COL     4   RATE     0.00000    
 AG WELL      4   ROW     7   COL     5   RATE     0.00000    
 AG WELL      5   ROW     8   COL     4   RATE     0.00000    
 AG WELL      6   ROW     8   COL     5   RATE     0.00000    
 
1
  VOLUMETRIC BUDGET FOR ENTIRE MODEL AT END OF TIME STEP    5, STRESS PERIOD   7
  ------------------------------------------------------------------------------

     CUMULATIVE VOLUMES      L**3       RATES FOR THIS TIME STEP      L**3/T
     ------------------                 ------------------------

           IN:                                      IN:
           ---                                      ---
               AG WELLS  =           0.0000                 AG WELLS  =           0.0000
        DIVERSION SEGMEN =      535838.9375          DIVERSION SEGMEN =           0.0000
    TS         GW IRRIGA =           0.0000      TS         GW IRRIGA =           0.0000
    TION         SW IRRI =           0.0000      TION         SW IRRI =           0.0000
    GATION      SYSTEM L =           0.0000      GATION      SYSTEM L =           0.0000
    OSSES GW      SYSTEM =           0.0000      OSSES GW      SYSTEM =           0.0000

                TOTAL IN =      535838.9375                  TOTAL IN =           0.0000

          OUT:                                     OUT:
          ----                                     ----
               AG WELLS  =           0.0000                 AG WELLS  =           0.0000
        DIVERSION SEGMEN =           0.0000          DIVERSION SEGMEN =           0.0000
    TS         GW IRRIGA =           0.0000      TS         GW IRRIGA =           0.0000
    TION         SW IRRI =      535849.6250      TION         SW IRRI =           0.0000
    GATION      SYSTEM L =           0.0000      GATION      SYSTEM L =           0.0000
    OSSES GW      SYSTEM =           0.0000      OSSES GW      SYSTEM =           0.0000

               TOTAL OUT =      535849.6250                 TOTAL OUT =           0.0000

                IN - OUT =         -10.6875                  IN - OUT =           0.0000

     PERCENT DISCREPANCY =          -0.00         PERCENT DISCREPANCY =           0.00



1
  VOLUMETRIC BUDGET FOR ENTIRE MODEL AT END OF TIME STEP    5, STRESS PERIOD   7
  ------------------------------------------------------------------------------

     CUMULATIVE VOLUMES      L**3       RATES FOR THIS TIME STEP      L**3/T
     ------------------                 ------------------------

           IN:                                      IN:
           ---                                      ---
             STORAGE     =     9577196.0000               STORAGE     =           0.9716
       CONSTANT HEAD     =           0.0000         CONSTANT HEAD     =           0.0000
     HEAD DEP BOUNDS     =     3907047.0000       HEAD DEP BOUNDS     =           0.2858
      STREAM LEAKAGE     =   167057056.0000        STREAM LEAKAGE     =          12.9670
        UZF RECHARGE     =       73223.9531          UZF RECHARGE     =           0.0000
               GW ET     =           0.0000                 GW ET     =           0.0000
     SURFACE LEAKAGE     =           0.0000       SURFACE LEAKAGE     =           0.0000
           AG WELLS      =           0.0000             AG WELLS      =           0.0000

                TOTAL IN =   180614512.0000                  TOTAL IN =          14.2244

          OUT:                                     OUT:
          ----                                     ----
             STORAGE     =    33468710.0000               STORAGE     =           2.5604
       CONSTANT HEAD     =           0.0000         CONSTANT HEAD     =           0.0000
     HEAD DEP BOUNDS     =     3991439.5000       HEAD DEP BOUNDS     =           0.2968
      STREAM LEAKAGE     =   141721072.0000        STREAM LEAKAGE     =          10.3939
        UZF RECHARGE     =           0.0000          UZF RECHARGE     =           0.0000
               GW ET     =     1439557.7500                 GW ET     =           0.9737
     SURFACE LEAKAGE     =           0.0000       SURFACE LEAKAGE     =           0.0000
           AG WELLS      =           0.0000             AG WELLS      =           0.0000

               TOTAL OUT =   180620768.0000                 TOTAL OUT =          14.2248

                IN - OUT =       -6256.0000                  IN - OUT =      -4.3583E-04

     PERCENT DISCREPANCY =          -0.00         PERCENT DISCREPANCY =          -0.00






         TIME SUMMARY AT END OF TIME STEP    5 IN STRESS PERIOD    7
                    SECONDS     MINUTES      HOURS       DAYS        YEARS
                    -----------------------------------------------------------
   TIME STEP LENGTH  87667.      1461.1      24.352      1.0147     2.77799E-03
 STRESS PERIOD TIME 4.38333E+05  7305.6      121.76      5.0733     1.38899E-02
         TOTAL TIME 1.36747E+07 2.27912E+05  3798.5      158.27     0.43333    
1
 
 SOLVING FOR HEAD 
                                                   Max.-Head-Change                         Max.-Flux-Residual
  Residual-Control   Outer-Iter.   Inner-Iter.     Column Row Layer    Maximum-Head-Change  Column Row Layer    Maximum-Flux-Residual          L2-NORM 
          0                 1           2             2    2     1       0.4974406624E-02       2    2    1         0.2590709298E+00      0.6326963062E+00
          0                 2           2             2    2     1      -0.4838748207E-03       2    2    1        -0.2590713963E-01      0.6283360343E-01
          0                 3           1             2    2     1       0.3295007464E-04       2    2    1         0.1813500117E-02      0.4358758351E-02

    ------------------------------------------------
       NWT REQUIRED            3 OUTER ITERATIONS 
       AND A TOTAL OF          5 INNER ITERATIONS.
    ------------------------------------------------

 NO OUTPUT CONTROL FOR STRESS PERIOD    7   TIME STEP    6
 
 SOLVING FOR HEAD 
                                                   Max.-Head-Change                         Max.-Flux-Residual
  Residual-Control   Outer-Iter.   Inner-Iter.     Column Row Layer    Maximum-Head-Change  Column Row Layer    Maximum-Flux-Residual          L2-NORM 
          0                 1           2             2    2     1       0.4955671701E-02       2    2    1         0.2580875965E+00      0.5964251532E+00
          0                 2           2             2    2     1      -0.4820524150E-03       2    2    1        -0.2580880574E-01      0.5932182724E-01
          0                 3           1             2    2     1       0.3282597549E-04       2    2    1         0.1806616738E-02      0.4123536528E-02

    ------------------------------------------------
       NWT REQUIRED            3 OUTER ITERATIONS 
       AND A TOTAL OF          5 INNER ITERATIONS.
    ------------------------------------------------

 NO OUTPUT CONTROL FOR STRESS PERIOD    7   TIME STEP    7
 
 SOLVING FOR HEAD 
                                                   Max.-Head-Change                         Max.-Flux-Residual
  Residual-Control   Outer-Iter.   Inner-Iter.     Column Row Layer    Maximum-Head-Change  Column Row Layer    Maximum-Flux-Residual          L2-NORM 
          0                 1           2             2    2     1       0.4937163911E-02       2    2    1         0.2571162136E+00      0.5706442973E+00
          0                 2           2             2    2     1      -0.4802521045E-03       2    2    1        -0.2571166696E-01      0.5683030449E-01
          0                 3           1             2    2     1       0.3270338133E-04       2    2    1         0.1799817041E-02      0.3956733494E-02

    ------------------------------------------------
       NWT REQUIRED            3 OUTER ITERATIONS 
       AND A TOTAL OF          5 INNER ITERATIONS.
    ------------------------------------------------

 NO OUTPUT CONTROL FOR STRESS PERIOD    7   TIME STEP    8
 
 SOLVING FOR HEAD 
                                                   Max.-Head-Change                         Max.-Flux-Residual
  Residual-Control   Outer-Iter.   Inner-Iter.     Column Row Layer    Maximum-Head-Change  Column Row Layer    Maximum-Flux-Residual          L2-NORM 
          0                 1           2             2    2     1       0.4918879268E-02       2    2    1         0.2561566072E+00      0.5523670552E+00
          0                 2           2             2    2     1      -0.4784734986E-03       2    2    1        -0.2561570575E-01      0.5506714715E-01
          0                 3           1             2    2     1       0.3258226473E-04       2    2    1         0.1793099739E-02      0.3839817804E-02

    ------------------------------------------------
       NWT REQUIRED            3 OUTER ITERATIONS 
       AND A TOTAL OF          5 INNER ITERATIONS.
    ------------------------------------------------

 NO OUTPUT CONTROL FOR STRESS PERIOD    7   TIME STEP    9
 
 SOLVING FOR HEAD 
                                                   Max.-Head-Change                         Max.-Flux-Residual
  Residual-Control   Outer-Iter.   Inner-Iter.     Column Row Layer    Maximum-Head-Change  Column Row Layer    Maximum-Flux-Residual          L2-NORM 
          0                 1           2             2    2     1       0.4900814550E-02       2    2    1         0.2552085709E+00      0.5393702864E+00
          0                 2           2             2    2     1      -0.4767162867E-03       2    2    1        -0.2552090163E-01      0.5381486431E-01
          0                 3           1             2    2     1       0.3246260486E-04       2    2    1         0.1786463439E-02      0.3755969303E-02

    ------------------------------------------------
       NWT REQUIRED            3 OUTER ITERATIONS 
       AND A TOTAL OF          5 INNER ITERATIONS.
    ------------------------------------------------

 OUTPUT CONTROL FOR STRESS PERIOD    7   TIME STEP   10
    PRINT BUDGET
    SAVE BUDGET
 UBDSV1 SAVING "         STORAGE" ON UNIT 102 AT TIME STEP 10, STRESS PERIOD   7
 UBDSV2 SAVING "   CONSTANT HEAD" ON UNIT 102 AT TIME STEP 10, STRESS PERIOD   7
 UBDSV1 SAVING "FLOW RIGHT FACE " ON UNIT 102 AT TIME STEP 10, STRESS PERIOD   7
 UBDSV1 SAVING "FLOW FRONT FACE " ON UNIT 102 AT TIME STEP 10, STRESS PERIOD   7

  HEAD DEP BOUNDS   PERIOD    7   STEP    10
 BOUNDARY      1   LAYER   1   ROW    13   COL     1   RATE   -0.296731    
 BOUNDARY      2   LAYER   1   ROW    14   COL     9   RATE    0.285763    



 STREAM LISTING     PERIOD      7   STEP       10

 LAYER ROW COL. STREAM  RCH.  FLOW INTO     FLOW TO   FLOW OUT OF   OVRLND.     DIRECT     STREAM       STREAM     STREAM     STREAM   STREAMBED  STREAMBED
                SEG.NO.  NO.  STRM. RCH.    AQUIFER    STRM. RCH.    RUNOFF     PRECIP       ET          HEAD       DEPTH      WIDTH   CONDCTNC.   GRADIENT

   1    1    1     1     1    6.2250E+01  3.7978E-01   6.1870E+01  0.000E+00  0.000E+00  0.000E+00  1.09460E+03  1.553E+00  1.854E+01  8.342E-02  1.518E+00
   1    2    2     1     2    6.1870E+01  5.8817E-01   6.1282E+01  0.000E+00  0.000E+00  0.000E+00  1.08961E+03  1.547E+00  1.848E+01  1.294E-01  1.516E+00
   1    3    3     1     3    6.1282E+01  5.0163E-01   6.0781E+01  0.000E+00  0.000E+00  0.000E+00  1.08396E+03  1.540E+00  1.841E+01  1.105E-01  1.513E+00
   1    3    4     1     4    6.0781E+01  4.6194E-01   6.0319E+01  0.000E+00  0.000E+00  0.000E+00  1.07894E+03  1.534E+00  1.836E+01  1.019E-01  1.511E+00
   1    4    5     2     1    5.8319E+01  3.9026E-01   5.7928E+01  0.000E+00  0.000E+00  0.000E+00  1.07394E+03  2.003E+00  1.200E+01  7.800E-02  1.668E+00
   1    5    6     2     2    5.7928E+01  2.9977E-01   5.7629E+01  0.000E+00  0.000E+00  0.000E+00  1.06851E+03  1.996E+00  1.200E+01  6.000E-02  1.665E+00
   1    6    6     2     3    5.7629E+01  2.9940E-01   5.7329E+01  0.000E+00  0.000E+00  0.000E+00  1.06378E+03  1.990E+00  1.200E+01  6.000E-02  1.663E+00
   1    7    6     2     4    5.7329E+01  2.9903E-01   5.7030E+01  0.000E+00  0.000E+00  0.000E+00  1.05906E+03  1.984E+00  1.200E+01  6.000E-02  1.661E+00
   1    8    6     2     5    5.7030E+01  2.9865E-01   5.6732E+01  0.000E+00  0.000E+00  0.000E+00  1.05434E+03  1.978E+00  1.200E+01  6.000E-02  1.659E+00
   1    3    5     3     1    2.0000E+00  2.8252E-01   1.7175E+00  0.000E+00  0.000E+00  0.000E+00  1.07555E+03  1.909E+00  9.636E+00  7.227E-02  1.955E+00
   1    3    6     3     2    1.7175E+00  2.4905E-01   1.4684E+00  0.000E+00  0.000E+00  0.000E+00  1.07264E+03  1.727E+00  8.909E+00  6.682E-02  1.864E+00
   1    3    7     3     3    1.4684E+00  1.9718E-01   1.2712E+00  0.000E+00  0.000E+00  0.000E+00  1.06987E+03  1.555E+00  8.218E+00  5.547E-02  1.777E+00
   1    4    8     3     4    1.2712E+00  2.2567E-01   1.0456E+00  0.000E+00  0.000E+00  0.000E+00  1.06682E+03  1.364E+00  7.455E+00  6.709E-02  1.682E+00
   1    5    8     3     5    1.0456E+00  1.5790E-01   8.8768E-01  0.000E+00  0.000E+00  0.000E+00  1.06362E+03  1.164E+00  6.655E+00  4.991E-02  1.582E+00
   1    6    8     3     6    8.8768E-01  5.5980E-02   8.3170E-01  0.000E+00  0.000E+00  0.000E+00  1.06158E+03  1.036E+00  6.145E+00  1.844E-02  1.518E+00
   1    5   10     4     1    1.0000E+01  9.0919E-02   9.9091E+00  0.000E+00  0.000E+00  0.000E+00  1.07836E+03  6.368E-01  1.000E+01  2.500E-02  1.212E+00
   1    5    9     4     2    9.9091E+00  1.8158E-01   9.7275E+00  0.000E+00  0.000E+00  0.000E+00  1.07154E+03  6.315E-01  1.000E+01  5.000E-02  1.211E+00
   1    6    8     4     3    9.7275E+00  1.2689E-01   9.6006E+00  0.000E+00  0.000E+00  0.000E+00  1.06381E+03  6.256E-01  1.000E+01  3.500E-02  1.209E+00
   1    6    8     5     1    1.0432E+01  2.2686E-01   1.0205E+01  0.000E+00  0.000E+00  0.000E+00  1.05868E+03  6.790E-01  1.542E+01  6.166E-02  1.226E+00
   1    7    7     5     2    1.0205E+01  2.7894E-01   9.9265E+00  0.000E+00  0.000E+00  0.000E+00  1.05417E+03  6.732E-01  1.519E+01  7.594E-02  1.224E+00
   1    8    7     5     3    9.9265E+00  1.9221E-01   9.7343E+00  0.000E+00  0.000E+00  0.000E+00  1.04992E+03  6.676E-01  1.497E+01  5.241E-02  1.223E+00
   1    8    6     5     4    9.7343E+00  1.3577E-01   9.5985E+00  0.000E+00  0.000E+00  0.000E+00  1.04691E+03  6.637E-01  1.482E+01  3.706E-02  1.221E+00
   1    9    6     6     1    6.6330E+01  3.1138E-01   6.6019E+01  0.000E+00  0.000E+00  0.000E+00  1.04492E+03  2.190E+00  1.200E+01  6.000E-02  1.730E+00
   1   10    7     6     2    6.6019E+01  3.1101E-01   6.5708E+01  0.000E+00  0.000E+00  0.000E+00  1.04037E+03  2.184E+00  1.200E+01  6.000E-02  1.728E+00
   1   11    7     6     3    6.5708E+01  3.1064E-01   6.5397E+01  0.000E+00  0.000E+00  0.000E+00  1.03581E+03  2.177E+00  1.200E+01  6.000E-02  1.726E+00
   1   12    7     6     4    6.5397E+01  3.1027E-01   6.5087E+01  0.000E+00  0.000E+00  0.000E+00  1.03126E+03  2.171E+00  1.200E+01  6.000E-02  1.724E+00
   1   13    7     6     5    6.5087E+01  2.1818E-02   6.5065E+01  0.000E+00  0.000E+00  0.000E+00  1.02808E+03  2.168E+00  1.200E+01  2.400E-02  3.030E-01
   1   14    9     7     1    1.5000E+02  1.3359E+00   1.4866E+02  0.000E+00  0.000E+00  0.000E+00  1.03987E+03  2.288E+00  5.529E+01  5.593E-01  7.962E-01
   1   13    8     7     2    1.4866E+02  1.8192E+00   1.4684E+02  0.000E+00  0.000E+00  0.000E+00  1.03478E+03  2.279E+00  5.526E+01  6.148E-01  9.864E-01
   1   13    7     7     3    1.4684E+02  1.4086E+00   1.4544E+02  0.000E+00  0.000E+00  0.000E+00  1.02969E+03  2.271E+00  5.522E+01  5.585E-01  8.407E-01
   1   13    6     8     1    2.1050E+02  1.0122E+00   2.0949E+02  0.000E+00  0.000E+00  0.000E+00  1.02507E+03  3.196E+00  4.634E+01  4.722E-01  7.145E-01
   1   13    5     8     2    2.0949E+02  2.0097E-01   2.0929E+02  0.000E+00  0.000E+00  0.000E+00  1.01882E+03  3.192E+00  4.629E+01  4.717E-01  1.420E-01
   1   13    4     8     3    2.0929E+02 -2.2574E+00   2.1155E+02  0.000E+00  0.000E+00  0.000E+00  1.01257E+03  3.198E+00  4.637E+01  4.725E+00 -1.592E-01
   1   13    3     8     4    2.1155E+02 -3.4109E+00   2.1496E+02  0.000E+00  0.000E+00  0.000E+00  1.00634E+03  3.214E+00  4.660E+01  4.749E+00 -2.394E-01
   1   13    2     8     5    2.1496E+02 -2.5925E+00   2.1755E+02  0.000E+00  0.000E+00  0.000E+00  1.00011E+03  3.231E+00  4.685E+01  4.774E+00 -1.810E-01
   1   13    1     8     6    2.1755E+02 -1.9841E+00   2.1953E+02  0.000E+00  0.000E+00  0.000E+00  9.95119E+02  3.244E+00  4.703E+01  2.876E+00 -2.300E-01
   1    8    6     9     1    0.0000E+00  0.0000E+00   0.0000E+00  0.000E+00  0.000E+00  0.000E+00  1.07875E+03  0.000E+00  4.000E+00  0.000E+00  1.000E+00
   1    8    5     9     2    0.0000E+00  0.0000E+00   0.0000E+00  0.000E+00  0.000E+00  0.000E+00  1.07825E+03  0.000E+00  4.000E+00  0.000E+00  1.000E+00



 UBDSV3 SAVING "           GW ET" ON UNIT  61 AT TIME STEP 10, STRESS PERIOD   7
 UBDSV3 SAVING "    UZF RECHARGE" ON UNIT  61 AT TIME STEP 10, STRESS PERIOD   7
 UBDSV3 SAVING " SURFACE LEAKAGE" ON UNIT  61 AT TIME STEP 10, STRESS PERIOD   7
 UBDSV3 SAVING "       HORT+DUNN" ON UNIT  61 AT TIME STEP 10, STRESS PERIOD   7
 UBDSV3 SAVING "  STORAGE CHANGE" ON UNIT  61 AT TIME STEP 10, STRESS PERIOD   7


UNSATURATED ZONE PACKAGE VOLUMETRIC BUDGET FOR  TIME STEP    10 STRESS PERIOD    7
  ------------------------------------------------------------------------------



     CUMULATIVE VOLUMES      L**3       RATES FOR THIS TIME STEP      L**3/T
     ------------------                 ------------------------

           IN:                                      IN:
           ---                                      ---
        INFILTRATION =    62431604.5972          INFILTRATION =           4.4075

          OUT:                                     OUT:
          ----                                     ----
              UZF ET =    43643268.9189                UZF ET =           4.4075
        UZF RECHARGE =       73224.0000          UZF RECHARGE =       0.0000E+00

            IN - OUT =    18715111.6782              IN - OUT =       0.0000E+00

          STORAGE:                                 STORAGE:
          --------                                 --------
      STORAGE CHANGE =    18715111.4112        STORAGE CHANGE =      -3.4028E-15

 PERCENT DISCREPANCY IS DIFFERENCE BETWEEN IN-OUT MINUS CHANGE IN STORAGE
 DIVIDED BY THE AVERAGE OF IN AND OUT TIMES 100

 PERCENT DISCREPANCY =           0.00     PERCENT DISCREPANCY =           0.00






 

            AG WELLS      PERIOD    7   STEP  10
 AG WELL      1   LAYER   1   ROW     6   COL     4   RATE     0.00000    
 AG WELL      2   LAYER   1   ROW     6   COL     5   RATE     0.00000    
 AG WELL      3   LAYER   1   ROW     7   COL     4   RATE     0.00000    
 AG WELL      4   LAYER   1   ROW     7   COL     5   RATE     0.00000    
 AG WELL      5   LAYER   1   ROW     8   COL     4   RATE     0.00000    
 AG WELL      6   LAYER   1   ROW     8   COL     5   RATE     0.00000    
 
 

   DIVERSION SEGMENTS     PERIOD    7   STEP  10
 SEGMENT      9   RATE     0.00000    
 
 

        SW IRRIGATION     PERIOD    7   STEP  10
 SEGMENT      9   ROW     6   COL     4   RATE     0.00000    
 SEGMENT      9   ROW     6   COL     5   RATE     0.00000    
 SEGMENT      9   ROW     7   COL     4   RATE     0.00000    
 SEGMENT      9   ROW     7   COL     5   RATE     0.00000    
 SEGMENT      9   ROW     8   COL     4   RATE     0.00000    
 SEGMENT      9   ROW     8   COL     5   RATE     0.00000    
 
 

        GW IRRIGATION     PERIOD    7   STEP  10
 AG WELL      1   ROW     6   COL     4   RATE     0.00000    
 AG WELL      2   ROW     6   COL     5   RATE     0.00000    
 AG WELL      3   ROW     7   COL     4   RATE     0.00000    
 AG WELL      4   ROW     7   COL     5   RATE     0.00000    
 AG WELL      5   ROW     8   COL     4   RATE     0.00000    
 AG WELL      6   ROW     8   COL     5   RATE     0.00000    
 
1
  VOLUMETRIC BUDGET FOR ENTIRE MODEL AT END OF TIME STEP   10, STRESS PERIOD   7
  ------------------------------------------------------------------------------

     CUMULATIVE VOLUMES      L**3       RATES FOR THIS TIME STEP      L**3/T
     ------------------                 ------------------------

           IN:                                      IN:
           ---                                      ---
               AG WELLS  =           0.0000                 AG WELLS  =           0.0000
        DIVERSION SEGMEN =      535838.9375          DIVERSION SEGMEN =           0.0000
    TS         GW IRRIGA =           0.0000      TS         GW IRRIGA =           0.0000
    TION         SW IRRI =           0.0000      TION         SW IRRI =           0.0000
    GATION      SYSTEM L =           0.0000      GATION      SYSTEM L =           0.0000
    OSSES GW      SYSTEM =           0.0000      OSSES GW      SYSTEM =           0.0000

                TOTAL IN =      535838.9375                  TOTAL IN =           0.0000

          OUT:                                     OUT:
          ----                                     ----
               AG WELLS  =           0.0000                 AG WELLS  =           0.0000
        DIVERSION SEGMEN =           0.0000          DIVERSION SEGMEN =           0.0000
    TS         GW IRRIGA =           0.0000      TS         GW IRRIGA =           0.0000
    TION         SW IRRI =      535849.6250      TION         SW IRRI =           0.0000
    GATION      SYSTEM L =           0.0000      GATION      SYSTEM L =           0.0000
    OSSES GW      SYSTEM =           0.0000      OSSES GW      SYSTEM =           0.0000

               TOTAL OUT =      535849.6250                 TOTAL OUT =           0.0000

                IN - OUT =         -10.6875                  IN - OUT =           0.0000

     PERCENT DISCREPANCY =          -0.00         PERCENT DISCREPANCY =           0.00



1
  VOLUMETRIC BUDGET FOR ENTIRE MODEL AT END OF TIME STEP   10, STRESS PERIOD   7
  ------------------------------------------------------------------------------

     CUMULATIVE VOLUMES      L**3       RATES FOR THIS TIME STEP      L**3/T
     ------------------                 ------------------------

           IN:                                      IN:
           ---                                      ---
             STORAGE     =     9895939.0000               STORAGE     =           0.6092
       CONSTANT HEAD     =           0.0000         CONSTANT HEAD     =           0.0000
     HEAD DEP BOUNDS     =     4032307.0000       HEAD DEP BOUNDS     =           0.2858
      STREAM LEAKAGE     =   172739568.0000        STREAM LEAKAGE     =          12.9620
        UZF RECHARGE     =       73223.9531          UZF RECHARGE     =           0.0000
               GW ET     =           0.0000                 GW ET     =           0.0000
     SURFACE LEAKAGE     =           0.0000       SURFACE LEAKAGE     =           0.0000
           AG WELLS      =           0.0000             AG WELLS      =           0.0000

                TOTAL IN =   186741024.0000                  TOTAL IN =          13.8569

          OUT:                                     OUT:
          ----                                     ----
             STORAGE     =    34578540.0000               STORAGE     =           2.5170
       CONSTANT HEAD     =           0.0000         CONSTANT HEAD     =           0.0000
     HEAD DEP BOUNDS     =     4121517.2500       HEAD DEP BOUNDS     =           0.2967
      STREAM LEAKAGE     =   146233456.0000        STREAM LEAKAGE     =          10.2448
        UZF RECHARGE     =           0.0000          UZF RECHARGE     =           0.0000
               GW ET     =     1814014.1250                 GW ET     =           0.7989
     SURFACE LEAKAGE     =           0.0000       SURFACE LEAKAGE     =           0.0000
           AG WELLS      =           0.0000             AG WELLS      =           0.0000

               TOTAL OUT =   186747520.0000                 TOTAL OUT =          13.8574

                IN - OUT =       -6496.0000                  IN - OUT =      -5.3692E-04

     PERCENT DISCREPANCY =          -0.00         PERCENT DISCREPANCY =          -0.00






         TIME SUMMARY AT END OF TIME STEP   10 IN STRESS PERIOD    7
                    SECONDS     MINUTES      HOURS       DAYS        YEARS
                    -----------------------------------------------------------
   TIME STEP LENGTH  87667.      1461.1      24.352      1.0147     2.77799E-03
 STRESS PERIOD TIME 8.76667E+05  14611.      243.52      10.147     2.77799E-02
         TOTAL TIME 1.41131E+07 2.35218E+05  3920.3      163.35     0.44722    
1
 
 SOLVING FOR HEAD 
                                                   Max.-Head-Change                         Max.-Flux-Residual
  Residual-Control   Outer-Iter.   Inner-Iter.     Column Row Layer    Maximum-Head-Change  Column Row Layer    Maximum-Flux-Residual          L2-NORM 
          0                 1           2             2    2     1       0.4882879156E-02       2    2    1         0.2542673834E+00      0.5300370858E+00
          0                 2           2             2    2     1      -0.4749716548E-03       2    2    1        -0.2542678239E-01      0.5291551945E-01
          0                 3           1             2    2     1       0.3234380221E-04       2    2    1         0.1779875118E-02      0.3696131946E-02

    ------------------------------------------------
       NWT REQUIRED            3 OUTER ITERATIONS 
       AND A TOTAL OF          5 INNER ITERATIONS.
    ------------------------------------------------

 NO OUTPUT CONTROL FOR STRESS PERIOD    7   TIME STEP   11
 
 SOLVING FOR HEAD 
                                                   Max.-Head-Change                         Max.-Flux-Residual
  Residual-Control   Outer-Iter.   Inner-Iter.     Column Row Layer    Maximum-Head-Change  Column Row Layer    Maximum-Flux-Residual          L2-NORM 
          0                 1           2             2    2     1       0.4865244561E-02       2    2    1         0.2533420091E+00      0.5232291769E+00
          0                 2           2             2    2     1      -0.4732562816E-03       2    2    1        -0.2533424444E-01      0.5225929462E-01
          0                 3           1             2    2     1       0.3222699165E-04       2    2    1         0.1773397457E-02      0.3652246918E-02

    ------------------------------------------------
       NWT REQUIRED            3 OUTER ITERATIONS 
       AND A TOTAL OF          5 INNER ITERATIONS.
    ------------------------------------------------

 NO OUTPUT CONTROL FOR STRESS PERIOD    7   TIME STEP   12
 
 SOLVING FOR HEAD 
                                                   Max.-Head-Change                         Max.-Flux-Residual
  Residual-Control   Outer-Iter.   Inner-Iter.     Column Row Layer    Maximum-Head-Change  Column Row Layer    Maximum-Flux-Residual          L2-NORM 
          0                 1           2             2    2     1       0.4847732450E-02       2    2    1         0.2524231227E+00      0.5181620428E+00
          0                 2           2             2    2     1      -0.4715528240E-03       2    2    1        -0.2524235535E-01      0.5177006947E-01
          0                 3           1             2    2     1       0.3211099310E-04       2    2    1         0.1766965236E-02      0.3619691043E-02

    ------------------------------------------------
       NWT REQUIRED            3 OUTER ITERATIONS 
       AND A TOTAL OF          5 INNER ITERATIONS.
    ------------------------------------------------

 NO OUTPUT CONTROL FOR STRESS PERIOD    7   TIME STEP   13
 
 SOLVING FOR HEAD 
                                                   Max.-Head-Change                         Max.-Flux-Residual
  Residual-Control   Outer-Iter.   Inner-Iter.     Column Row Layer    Maximum-Head-Change  Column Row Layer    Maximum-Flux-Residual          L2-NORM 
          0                 1           2             2    2     1       0.4830427330E-02       2    2    1         0.2515151411E+00      0.5142900824E+00
          0                 2           2             2    2     1      -0.4698694875E-03       2    2    1        -0.2515155669E-01      0.5140365315E-01
          0                 3           1             2    2     1       0.3199636348E-04       2    2    1         0.1760609304E-02      0.3595230537E-02

    ------------------------------------------------
       NWT REQUIRED            3 OUTER ITERATIONS 
       AND A TOTAL OF          5 INNER ITERATIONS.
    ------------------------------------------------

 NO OUTPUT CONTROL FOR STRESS PERIOD    7   TIME STEP   14
 
 SOLVING FOR HEAD 
                                                   Max.-Head-Change                         Max.-Flux-Residual
  Residual-Control   Outer-Iter.   Inner-Iter.     Column Row Layer    Maximum-Head-Change  Column Row Layer    Maximum-Flux-Residual          L2-NORM 
          0                 1           2             2    2     1       0.4813326407E-02       2    2    1         0.2506178924E+00      0.5112346265E+00
          0                 2           2             2    2     1      -0.4682060400E-03       2    2    1        -0.2506183138E-01      0.5109935453E-01
          0                 3           1             2    2     1       0.3188308952E-04       2    2    1         0.1754328552E-02      0.3574799457E-02

    ------------------------------------------------
       NWT REQUIRED            3 OUTER ITERATIONS 
       AND A TOTAL OF          5 INNER ITERATIONS.
    ------------------------------------------------

 OUTPUT CONTROL FOR STRESS PERIOD    7   TIME STEP   15
    PRINT BUDGET
    SAVE BUDGET
 UBDSV1 SAVING "         STORAGE" ON UNIT 102 AT TIME STEP 15, STRESS PERIOD   7
 UBDSV2 SAVING "   CONSTANT HEAD" ON UNIT 102 AT TIME STEP 15, STRESS PERIOD   7
 UBDSV1 SAVING "FLOW RIGHT FACE " ON UNIT 102 AT TIME STEP 15, STRESS PERIOD   7
 UBDSV1 SAVING "FLOW FRONT FACE " ON UNIT 102 AT TIME STEP 15, STRESS PERIOD   7

  HEAD DEP BOUNDS   PERIOD    7   STEP    15
 BOUNDARY      1   LAYER   1   ROW    13   COL     1   RATE   -0.296675    
 BOUNDARY      2   LAYER   1   ROW    14   COL     9   RATE    0.285763    



 STREAM LISTING     PERIOD      7   STEP       15

 LAYER ROW COL. STREAM  RCH.  FLOW INTO     FLOW TO   FLOW OUT OF   OVRLND.     DIRECT     STREAM       STREAM     STREAM     STREAM   STREAMBED  STREAMBED
                SEG.NO.  NO.  STRM. RCH.    AQUIFER    STRM. RCH.    RUNOFF     PRECIP       ET          HEAD       DEPTH      WIDTH   CONDCTNC.   GRADIENT

   1    1    1     1     1    6.2250E+01  3.7978E-01   6.1870E+01  0.000E+00  0.000E+00  0.000E+00  1.09460E+03  1.553E+00  1.854E+01  8.342E-02  1.518E+00
   1    2    2     1     2    6.1870E+01  5.8817E-01   6.1282E+01  0.000E+00  0.000E+00  0.000E+00  1.08961E+03  1.547E+00  1.848E+01  1.294E-01  1.516E+00
   1    3    3     1     3    6.1282E+01  5.0163E-01   6.0781E+01  0.000E+00  0.000E+00  0.000E+00  1.08396E+03  1.540E+00  1.841E+01  1.105E-01  1.513E+00
   1    3    4     1     4    6.0781E+01  4.6194E-01   6.0319E+01  0.000E+00  0.000E+00  0.000E+00  1.07894E+03  1.534E+00  1.836E+01  1.019E-01  1.511E+00
   1    4    5     2     1    5.8319E+01  3.9026E-01   5.7928E+01  0.000E+00  0.000E+00  0.000E+00  1.07394E+03  2.003E+00  1.200E+01  7.800E-02  1.668E+00
   1    5    6     2     2    5.7928E+01  2.9977E-01   5.7629E+01  0.000E+00  0.000E+00  0.000E+00  1.06851E+03  1.996E+00  1.200E+01  6.000E-02  1.665E+00
   1    6    6     2     3    5.7629E+01  2.9940E-01   5.7329E+01  0.000E+00  0.000E+00  0.000E+00  1.06378E+03  1.990E+00  1.200E+01  6.000E-02  1.663E+00
   1    7    6     2     4    5.7329E+01  2.9903E-01   5.7030E+01  0.000E+00  0.000E+00  0.000E+00  1.05906E+03  1.984E+00  1.200E+01  6.000E-02  1.661E+00
   1    8    6     2     5    5.7030E+01  2.9865E-01   5.6732E+01  0.000E+00  0.000E+00  0.000E+00  1.05434E+03  1.978E+00  1.200E+01  6.000E-02  1.659E+00
   1    3    5     3     1    2.0000E+00  2.8252E-01   1.7175E+00  0.000E+00  0.000E+00  0.000E+00  1.07555E+03  1.909E+00  9.636E+00  7.227E-02  1.955E+00
   1    3    6     3     2    1.7175E+00  2.4905E-01   1.4684E+00  0.000E+00  0.000E+00  0.000E+00  1.07264E+03  1.727E+00  8.909E+00  6.682E-02  1.864E+00
   1    3    7     3     3    1.4684E+00  1.9718E-01   1.2712E+00  0.000E+00  0.000E+00  0.000E+00  1.06987E+03  1.555E+00  8.218E+00  5.547E-02  1.777E+00
   1    4    8     3     4    1.2712E+00  2.2567E-01   1.0456E+00  0.000E+00  0.000E+00  0.000E+00  1.06682E+03  1.364E+00  7.455E+00  6.709E-02  1.682E+00
   1    5    8     3     5    1.0456E+00  1.5790E-01   8.8768E-01  0.000E+00  0.000E+00  0.000E+00  1.06362E+03  1.164E+00  6.655E+00  4.991E-02  1.582E+00
   1    6    8     3     6    8.8768E-01  5.5980E-02   8.3170E-01  0.000E+00  0.000E+00  0.000E+00  1.06158E+03  1.036E+00  6.145E+00  1.844E-02  1.518E+00
   1    5   10     4     1    1.0000E+01  9.0919E-02   9.9091E+00  0.000E+00  0.000E+00  0.000E+00  1.07836E+03  6.368E-01  1.000E+01  2.500E-02  1.212E+00
   1    5    9     4     2    9.9091E+00  1.8158E-01   9.7275E+00  0.000E+00  0.000E+00  0.000E+00  1.07154E+03  6.315E-01  1.000E+01  5.000E-02  1.211E+00
   1    6    8     4     3    9.7275E+00  1.2689E-01   9.6006E+00  0.000E+00  0.000E+00  0.000E+00  1.06381E+03  6.256E-01  1.000E+01  3.500E-02  1.209E+00
   1    6    8     5     1    1.0432E+01  2.2686E-01   1.0205E+01  0.000E+00  0.000E+00  0.000E+00  1.05868E+03  6.790E-01  1.542E+01  6.166E-02  1.226E+00
   1    7    7     5     2    1.0205E+01  2.7894E-01   9.9265E+00  0.000E+00  0.000E+00  0.000E+00  1.05417E+03  6.732E-01  1.519E+01  7.594E-02  1.224E+00
   1    8    7     5     3    9.9265E+00  1.9221E-01   9.7343E+00  0.000E+00  0.000E+00  0.000E+00  1.04992E+03  6.676E-01  1.497E+01  5.241E-02  1.223E+00
   1    8    6     5     4    9.7343E+00  1.3577E-01   9.5985E+00  0.000E+00  0.000E+00  0.000E+00  1.04691E+03  6.637E-01  1.482E+01  3.706E-02  1.221E+00
   1    9    6     6     1    6.6330E+01  3.1138E-01   6.6019E+01  0.000E+00  0.000E+00  0.000E+00  1.04492E+03  2.190E+00  1.200E+01  6.000E-02  1.730E+00
   1   10    7     6     2    6.6019E+01  3.1101E-01   6.5708E+01  0.000E+00  0.000E+00  0.000E+00  1.04037E+03  2.184E+00  1.200E+01  6.000E-02  1.728E+00
   1   11    7     6     3    6.5708E+01  3.1064E-01   6.5397E+01  0.000E+00  0.000E+00  0.000E+00  1.03581E+03  2.177E+00  1.200E+01  6.000E-02  1.726E+00
   1   12    7     6     4    6.5397E+01  3.1027E-01   6.5087E+01  0.000E+00  0.000E+00  0.000E+00  1.03126E+03  2.171E+00  1.200E+01  6.000E-02  1.724E+00
   1   13    7     6     5    6.5087E+01  2.1749E-02   6.5065E+01  0.000E+00  0.000E+00  0.000E+00  1.02808E+03  2.168E+00  1.200E+01  2.400E-02  3.021E-01
   1   14    9     7     1    1.5000E+02  1.3359E+00   1.4866E+02  0.000E+00  0.000E+00  0.000E+00  1.03987E+03  2.288E+00  5.529E+01  5.593E-01  7.962E-01
   1   13    8     7     2    1.4866E+02  1.8186E+00   1.4685E+02  0.000E+00  0.000E+00  0.000E+00  1.03478E+03  2.279E+00  5.526E+01  6.148E-01  9.860E-01
   1   13    7     7     3    1.4685E+02  1.4070E+00   1.4544E+02  0.000E+00  0.000E+00  0.000E+00  1.02969E+03  2.271E+00  5.522E+01  5.585E-01  8.398E-01
   1   13    6     8     1    2.1050E+02  1.0106E+00   2.0949E+02  0.000E+00  0.000E+00  0.000E+00  1.02507E+03  3.196E+00  4.634E+01  4.722E-01  7.134E-01
   1   13    5     8     2    2.0949E+02  2.0019E-01   2.0929E+02  0.000E+00  0.000E+00  0.000E+00  1.01882E+03  3.192E+00  4.629E+01  4.717E-01  1.415E-01
   1   13    4     8     3    2.0929E+02 -2.2399E+00   2.1153E+02  0.000E+00  0.000E+00  0.000E+00  1.01257E+03  3.198E+00  4.637E+01  4.725E+00 -1.580E-01
   1   13    3     8     4    2.1153E+02 -3.3902E+00   2.1492E+02  0.000E+00  0.000E+00  0.000E+00  1.00634E+03  3.214E+00  4.660E+01  4.749E+00 -2.380E-01
   1   13    2     8     5    2.1492E+02 -2.5680E+00   2.1749E+02  0.000E+00  0.000E+00  0.000E+00  1.00011E+03  3.231E+00  4.685E+01  4.774E+00 -1.793E-01
   1   13    1     8     6    2.1749E+02 -1.9806E+00   2.1947E+02  0.000E+00  0.000E+00  0.000E+00  9.95118E+02  3.243E+00  4.703E+01  2.876E+00 -2.296E-01
   1    8    6     9     1    0.0000E+00  0.0000E+00   0.0000E+00  0.000E+00  0.000E+00  0.000E+00  1.07875E+03  0.000E+00  4.000E+00  0.000E+00  1.000E+00
   1    8    5     9     2    0.0000E+00  0.0000E+00   0.0000E+00  0.000E+00  0.000E+00  0.000E+00  1.07825E+03  0.000E+00  4.000E+00  0.000E+00  1.000E+00



 UBDSV3 SAVING "           GW ET" ON UNIT  61 AT TIME STEP 15, STRESS PERIOD   7
 UBDSV3 SAVING "    UZF RECHARGE" ON UNIT  61 AT TIME STEP 15, STRESS PERIOD   7
 UBDSV3 SAVING " SURFACE LEAKAGE" ON UNIT  61 AT TIME STEP 15, STRESS PERIOD   7
 UBDSV3 SAVING "       HORT+DUNN" ON UNIT  61 AT TIME STEP 15, STRESS PERIOD   7
 UBDSV3 SAVING "  STORAGE CHANGE" ON UNIT  61 AT TIME STEP 15, STRESS PERIOD   7


UNSATURATED ZONE PACKAGE VOLUMETRIC BUDGET FOR  TIME STEP    15 STRESS PERIOD    7
  ------------------------------------------------------------------------------



     CUMULATIVE VOLUMES      L**3       RATES FOR THIS TIME STEP      L**3/T
     ------------------                 ------------------------

           IN:                                      IN:
           ---                                      ---
        INFILTRATION =    64363558.6902          INFILTRATION =           4.4075

          OUT:                                     OUT:
          ----                                     ----
              UZF ET =    45575223.0120                UZF ET =           4.4075
        UZF RECHARGE =       73224.0000          UZF RECHARGE =       0.0000E+00

            IN - OUT =    18715111.6782              IN - OUT =       0.0000E+00

          STORAGE:                                 STORAGE:
          --------                                 --------
      STORAGE CHANGE =    18715111.4112        STORAGE CHANGE =       8.2996E-15

 PERCENT DISCREPANCY IS DIFFERENCE BETWEEN IN-OUT MINUS CHANGE IN STORAGE
 DIVIDED BY THE AVERAGE OF IN AND OUT TIMES 100

 PERCENT DISCREPANCY =           0.00     PERCENT DISCREPANCY =           0.00






 

            AG WELLS      PERIOD    7   STEP  15
 AG WELL      1   LAYER   1   ROW     6   COL     4   RATE     0.00000    
 AG WELL      2   LAYER   1   ROW     6   COL     5   RATE     0.00000    
 AG WELL      3   LAYER   1   ROW     7   COL     4   RATE     0.00000    
 AG WELL      4   LAYER   1   ROW     7   COL     5   RATE     0.00000    
 AG WELL      5   LAYER   1   ROW     8   COL     4   RATE     0.00000    
 AG WELL      6   LAYER   1   ROW     8   COL     5   RATE     0.00000    
 
 

   DIVERSION SEGMENTS     PERIOD    7   STEP  15
 SEGMENT      9   RATE     0.00000    
 
 

        SW IRRIGATION     PERIOD    7   STEP  15
 SEGMENT      9   ROW     6   COL     4   RATE     0.00000    
 SEGMENT      9   ROW     6   COL     5   RATE     0.00000    
 SEGMENT      9   ROW     7   COL     4   RATE     0.00000    
 SEGMENT      9   ROW     7   COL     5   RATE     0.00000    
 SEGMENT      9   ROW     8   COL     4   RATE     0.00000    
 SEGMENT      9   ROW     8   COL     5   RATE     0.00000    
 
 

        GW IRRIGATION     PERIOD    7   STEP  15
 AG WELL      1   ROW     6   COL     4   RATE     0.00000    
 AG WELL      2   ROW     6   COL     5   RATE     0.00000    
 AG WELL      3   ROW     7   COL     4   RATE     0.00000    
 AG WELL      4   ROW     7   COL     5   RATE     0.00000    
 AG WELL      5   ROW     8   COL     4   RATE     0.00000    
 AG WELL      6   ROW     8   COL     5   RATE     0.00000    
 
1
  VOLUMETRIC BUDGET FOR ENTIRE MODEL AT END OF TIME STEP   15, STRESS PERIOD   7
  ------------------------------------------------------------------------------

     CUMULATIVE VOLUMES      L**3       RATES FOR THIS TIME STEP      L**3/T
     ------------------                 ------------------------

           IN:                                      IN:
           ---                                      ---
               AG WELLS  =           0.0000                 AG WELLS  =           0.0000
        DIVERSION SEGMEN =      535838.9375          DIVERSION SEGMEN =           0.0000
    TS         GW IRRIGA =           0.0000      TS         GW IRRIGA =           0.0000
    TION         SW IRRI =           0.0000      TION         SW IRRI =           0.0000
    GATION      SYSTEM L =           0.0000      GATION      SYSTEM L =           0.0000
    OSSES GW      SYSTEM =           0.0000      OSSES GW      SYSTEM =           0.0000

                TOTAL IN =      535838.9375                  TOTAL IN =           0.0000

          OUT:                                     OUT:
          ----                                     ----
               AG WELLS  =           0.0000                 AG WELLS  =           0.0000
        DIVERSION SEGMEN =           0.0000          DIVERSION SEGMEN =           0.0000
    TS         GW IRRIGA =           0.0000      TS         GW IRRIGA =           0.0000
    TION         SW IRRI =      535849.6250      TION         SW IRRI =           0.0000
    GATION      SYSTEM L =           0.0000      GATION      SYSTEM L =           0.0000
    OSSES GW      SYSTEM =           0.0000      OSSES GW      SYSTEM =           0.0000

               TOTAL OUT =      535849.6250                 TOTAL OUT =           0.0000

                IN - OUT =         -10.6875                  IN - OUT =           0.0000

     PERCENT DISCREPANCY =          -0.00         PERCENT DISCREPANCY =           0.00



1
  VOLUMETRIC BUDGET FOR ENTIRE MODEL AT END OF TIME STEP   15, STRESS PERIOD   7
  ------------------------------------------------------------------------------

     CUMULATIVE VOLUMES      L**3       RATES FOR THIS TIME STEP      L**3/T
     ------------------                 ------------------------

           IN:                                      IN:
           ---                                      ---
             STORAGE     =    10120155.0000               STORAGE     =           0.4630
       CONSTANT HEAD     =           0.0000         CONSTANT HEAD     =           0.0000
     HEAD DEP BOUNDS     =     4157567.0000       HEAD DEP BOUNDS     =           0.2858
      STREAM LEAKAGE     =   178420048.0000        STREAM LEAKAGE     =          12.9574
        UZF RECHARGE     =       73223.9531          UZF RECHARGE     =           0.0000
               GW ET     =           0.0000                 GW ET     =           0.0000
     SURFACE LEAKAGE     =           0.0000       SURFACE LEAKAGE     =           0.0000
           AG WELLS      =           0.0000             AG WELLS      =           0.0000

                TOTAL IN =   192770992.0000                  TOTAL IN =          13.7061

          OUT:                                     OUT:
          ----                                     ----
             STORAGE     =    35675120.0000               STORAGE     =           2.4930
       CONSTANT HEAD     =           0.0000         CONSTANT HEAD     =           0.0000
     HEAD DEP BOUNDS     =     4251569.0000       HEAD DEP BOUNDS     =           0.2967
      STREAM LEAKAGE     =   150704960.0000        STREAM LEAKAGE     =          10.1787
        UZF RECHARGE     =           0.0000          UZF RECHARGE     =           0.0000
               GW ET     =     2146050.7500                 GW ET     =           0.7384
     SURFACE LEAKAGE     =           0.0000       SURFACE LEAKAGE     =           0.0000
           AG WELLS      =           0.0000             AG WELLS      =           0.0000

               TOTAL OUT =   192777696.0000                 TOTAL OUT =          13.7067

                IN - OUT =       -6704.0000                  IN - OUT =      -5.7411E-04

     PERCENT DISCREPANCY =          -0.00         PERCENT DISCREPANCY =          -0.00






         TIME SUMMARY AT END OF TIME STEP   15 IN STRESS PERIOD    7
                    SECONDS     MINUTES      HOURS       DAYS        YEARS
                    -----------------------------------------------------------
   TIME STEP LENGTH  87667.      1461.1      24.352      1.0147     2.77799E-03
 STRESS PERIOD TIME 1.31500E+06  21917.      365.28      15.220     4.16698E-02
         TOTAL TIME 1.45514E+07 2.42524E+05  4042.1      168.42     0.46111    
1
 
 SOLVING FOR HEAD 
                                                   Max.-Head-Change                         Max.-Flux-Residual
  Residual-Control   Outer-Iter.   Inner-Iter.     Column Row Layer    Maximum-Head-Change  Column Row Layer    Maximum-Flux-Residual          L2-NORM 
          0                 1           2             2    2     1       0.4796426362E-02       2    2    1         0.2497312297E+00      0.5087499539E+00
          0                 2           2             2    2     1      -0.4665621196E-03       2    2    1        -0.2497316464E-01      0.5085747008E-01
          0                 3           1             2    2     1       0.3177114472E-04       2    2    1         0.1748121890E-02      0.3558349519E-02

    ------------------------------------------------
       NWT REQUIRED            3 OUTER ITERATIONS 
       AND A TOTAL OF          5 INNER ITERATIONS.
    ------------------------------------------------

 NO OUTPUT CONTROL FOR STRESS PERIOD    7   TIME STEP   16
 
 SOLVING FOR HEAD 
                                                   Max.-Head-Change                         Max.-Flux-Residual
  Residual-Control   Outer-Iter.   Inner-Iter.     Column Row Layer    Maximum-Head-Change  Column Row Layer    Maximum-Flux-Residual          L2-NORM 
          0                 1           2             2    2     1       0.4779723747E-02       2    2    1         0.2488549831E+00      0.5066727331E+00
          0                 2           2             2    2     1      -0.4649374038E-03       2    2    1        -0.2488553956E-01      0.5065424655E-01
          0                 3           1             2    2     1       0.3166050683E-04       2    2    1         0.1741988103E-02      0.3544541396E-02

    ------------------------------------------------
       NWT REQUIRED            3 OUTER ITERATIONS 
       AND A TOTAL OF          5 INNER ITERATIONS.
    ------------------------------------------------

 NO OUTPUT CONTROL FOR STRESS PERIOD    7   TIME STEP   17
 
 SOLVING FOR HEAD 
                                                   Max.-Head-Change                         Max.-Flux-Residual
  Residual-Control   Outer-Iter.   Inner-Iter.     Column Row Layer    Maximum-Head-Change  Column Row Layer    Maximum-Flux-Residual          L2-NORM 
          0                 1           2             2    2     1       0.4763128713E-02       2    2    1         0.2479844180E+00      0.5048789469E+00
          0                 2           2             2    2     1      -0.4633231530E-03       2    2    1        -0.2479848260E-01      0.5047846146E-01
          0                 3           1             2    2     1       0.3155058298E-04       2    2    1         0.1735894143E-02      0.3532597888E-02

    ------------------------------------------------
       NWT REQUIRED            3 OUTER ITERATIONS 
       AND A TOTAL OF          5 INNER ITERATIONS.
    ------------------------------------------------

 NO OUTPUT CONTROL FOR STRESS PERIOD    7   TIME STEP   18
 
 SOLVING FOR HEAD 
                                                   Max.-Head-Change                         Max.-Flux-Residual
  Residual-Control   Outer-Iter.   Inner-Iter.     Column Row Layer    Maximum-Head-Change  Column Row Layer    Maximum-Flux-Residual          L2-NORM 
          0                 1           2             2    2     1       0.4746813593E-02       2    2    1         0.2471285408E+00      0.5032991456E+00
          0                 2           2             2    2     1      -0.4617361301E-03       2    2    1        -0.2471289444E-01      0.5032287439E-01
          0                 3           1             2    2     1       0.3144251276E-04       2    2    1         0.1729902973E-02      0.3521882391E-02

    ------------------------------------------------
       NWT REQUIRED            3 OUTER ITERATIONS 
       AND A TOTAL OF          5 INNER ITERATIONS.
    ------------------------------------------------

 NO OUTPUT CONTROL FOR STRESS PERIOD    7   TIME STEP   19
 
 SOLVING FOR HEAD 
                                                   Max.-Head-Change                         Max.-Flux-Residual
  Residual-Control   Outer-Iter.   Inner-Iter.     Column Row Layer    Maximum-Head-Change  Column Row Layer    Maximum-Flux-Residual          L2-NORM 
          0                 1           2             2    2     1       0.4730599632E-02       2    2    1         0.2462780666E+00      0.5018682482E+00
          0                 2           2             2    2     1      -0.4601589475E-03       2    2    1        -0.2462784660E-01      0.5018182074E-01
          0                 3           1             2    2     1       0.3133511256E-04       2    2    1         0.1723949628E-02      0.3512267590E-02

    ------------------------------------------------
       NWT REQUIRED            3 OUTER ITERATIONS 
       AND A TOTAL OF          5 INNER ITERATIONS.
    ------------------------------------------------

 NO OUTPUT CONTROL FOR STRESS PERIOD    7   TIME STEP   20
 
 SOLVING FOR HEAD 
                                                   Max.-Head-Change                         Max.-Flux-Residual
  Residual-Control   Outer-Iter.   Inner-Iter.     Column Row Layer    Maximum-Head-Change  Column Row Layer    Maximum-Flux-Residual          L2-NORM 
          0                 1           2             1    1     1       0.4717440413E-02       2    2    1         0.2454373925E+00      0.5005525542E+00
          0                 2           2             1    1     1      -0.4588790912E-03       2    2    1        -0.2454377875E-01      0.5005154575E-01
          0                 3           1             1    1     1       0.3124795716E-04       2    2    1         0.1718064886E-02      0.3503306444E-02

    ------------------------------------------------
       NWT REQUIRED            3 OUTER ITERATIONS 
       AND A TOTAL OF          5 INNER ITERATIONS.
    ------------------------------------------------

 NO OUTPUT CONTROL FOR STRESS PERIOD    7   TIME STEP   21
 
 SOLVING FOR HEAD 
                                                   Max.-Head-Change                         Max.-Flux-Residual
  Residual-Control   Outer-Iter.   Inner-Iter.     Column Row Layer    Maximum-Head-Change  Column Row Layer    Maximum-Flux-Residual          L2-NORM 
          0                 1           2             1    1     1       0.4711693335E-02       1    1    1         0.2446371363E+00      0.4993279395E+00
          0                 2           2             1    1     1      -0.4583200542E-03       1    1    1        -0.2446376458E-01      0.4993001409E-01
          0                 3           1             1    1     1       0.3120988897E-04       1    1    1         0.1712463785E-02      0.3494860807E-02

    ------------------------------------------------
       NWT REQUIRED            3 OUTER ITERATIONS 
       AND A TOTAL OF          5 INNER ITERATIONS.
    ------------------------------------------------

 NO OUTPUT CONTROL FOR STRESS PERIOD    7   TIME STEP   22
 
 SOLVING FOR HEAD 
                                                   Max.-Head-Change                         Max.-Flux-Residual
  Residual-Control   Outer-Iter.   Inner-Iter.     Column Row Layer    Maximum-Head-Change  Column Row Layer    Maximum-Flux-Residual          L2-NORM 
          0                 1           2             1    1     1       0.4705944302E-02       1    1    1         0.2443380128E+00      0.4981706915E+00
          0                 2           2             1    1     1      -0.4577608262E-03       1    1    1        -0.2443385198E-01      0.4981502115E-01
          0                 3           1             1    1     1       0.3117180800E-04       1    1    1         0.1710369909E-02      0.3486861436E-02

    ------------------------------------------------
       NWT REQUIRED            3 OUTER ITERATIONS 
       AND A TOTAL OF          5 INNER ITERATIONS.
    ------------------------------------------------

 NO OUTPUT CONTROL FOR STRESS PERIOD    7   TIME STEP   23
 
 SOLVING FOR HEAD 
                                                   Max.-Head-Change                         Max.-Flux-Residual
  Residual-Control   Outer-Iter.   Inner-Iter.     Column Row Layer    Maximum-Head-Change  Column Row Layer    Maximum-Flux-Residual          L2-NORM 
          0                 1           2             1    1     1       0.4700215383E-02       1    1    1         0.2440399352E+00      0.4970722970E+00
          0                 2           2             1    1     1      -0.4572035548E-03       1    1    1        -0.2440404398E-01      0.4970577945E-01
          0                 3           1             1    1     1       0.3113385981E-04       1    1    1         0.1708283335E-02      0.3479272445E-02

    ------------------------------------------------
       NWT REQUIRED            3 OUTER ITERATIONS 
       AND A TOTAL OF          5 INNER ITERATIONS.
    ------------------------------------------------

 NO OUTPUT CONTROL FOR STRESS PERIOD    7   TIME STEP   24
 
 SOLVING FOR HEAD 
                                                   Max.-Head-Change                         Max.-Flux-Residual
  Residual-Control   Outer-Iter.   Inner-Iter.     Column Row Layer    Maximum-Head-Change  Column Row Layer    Maximum-Flux-Residual          L2-NORM 
          0                 1           2             1    1     1       0.4694506511E-02       1    1    1         0.2437429005E+00      0.4960106888E+00
          0                 2           2             1    1     1      -0.4566482338E-03       1    1    1        -0.2437434028E-01      0.4960008123E-01
          0                 3           1             1    1     1       0.3109604416E-04       1    1    1         0.1706204068E-02      0.3472065001E-02

    ------------------------------------------------
       NWT REQUIRED            3 OUTER ITERATIONS 
       AND A TOTAL OF          5 INNER ITERATIONS.
    ------------------------------------------------

 NO OUTPUT CONTROL FOR STRESS PERIOD    7   TIME STEP   25
 
 SOLVING FOR HEAD 
                                                   Max.-Head-Change                         Max.-Flux-Residual
  Residual-Control   Outer-Iter.   Inner-Iter.     Column Row Layer    Maximum-Head-Change  Column Row Layer    Maximum-Flux-Residual          L2-NORM 
          0                 1           2             1    1     1       0.4688817589E-02       1    1    1         0.2434469052E+00      0.4949912668E+00
          0                 2           2             1    1     1      -0.4560948535E-03       1    1    1        -0.2434474052E-01      0.4949835627E-01
          0                 3           1             1    1     1       0.3105836151E-04       1    1    1         0.1704132108E-02      0.3464809210E-02

    ------------------------------------------------
       NWT REQUIRED            3 OUTER ITERATIONS 
       AND A TOTAL OF          5 INNER ITERATIONS.
    ------------------------------------------------

 NO OUTPUT CONTROL FOR STRESS PERIOD    7   TIME STEP   26
 
 SOLVING FOR HEAD 
                                                   Max.-Head-Change                         Max.-Flux-Residual
  Residual-Control   Outer-Iter.   Inner-Iter.     Column Row Layer    Maximum-Head-Change  Column Row Layer    Maximum-Flux-Residual          L2-NORM 
          0                 1           2             1    1     1       0.4683148533E-02       1    1    1         0.2431519442E+00      0.4940007608E+00
          0                 2           2             1    1     1      -0.4555434057E-03       1    1    1        -0.2431524421E-01      0.4939953110E-01
          0                 3           1             1    1     1       0.3102080998E-04       1    1    1         0.1702067366E-02      0.3457909479E-02

    ------------------------------------------------
       NWT REQUIRED            3 OUTER ITERATIONS 
       AND A TOTAL OF          5 INNER ITERATIONS.
    ------------------------------------------------

 NO OUTPUT CONTROL FOR STRESS PERIOD    7   TIME STEP   27
 
 SOLVING FOR HEAD 
                                                   Max.-Head-Change                         Max.-Flux-Residual
  Residual-Control   Outer-Iter.   Inner-Iter.     Column Row Layer    Maximum-Head-Change  Column Row Layer    Maximum-Flux-Residual          L2-NORM 
          0                 1           2             1    1     1       0.4677499279E-02       1    1    1         0.2428580133E+00      0.4930423216E+00
          0                 2           2             1    1     1      -0.4549938833E-03       1    1    1        -0.2428585086E-01      0.4930378438E-01
          0                 3           1             1    1     1       0.3098338957E-04       1    1    1         0.1700009835E-02      0.3451197660E-02

    ------------------------------------------------
       NWT REQUIRED            3 OUTER ITERATIONS 
       AND A TOTAL OF          5 INNER ITERATIONS.
    ------------------------------------------------

 NO OUTPUT CONTROL FOR STRESS PERIOD    7   TIME STEP   28
 
 SOLVING FOR HEAD 
                                                   Max.-Head-Change                         Max.-Flux-Residual
  Residual-Control   Outer-Iter.   Inner-Iter.     Column Row Layer    Maximum-Head-Change  Column Row Layer    Maximum-Flux-Residual          L2-NORM 
          0                 1           2             1    1     1       0.4671847619E-02       1    1    1         0.2425639608E+00      0.4921026968E+00
          0                 2           2             1    1     1      -0.4544441276E-03       1    1    1        -0.2425644540E-01      0.4920990150E-01
          0                 3           1             1    1     1       0.3094595307E-04       1    1    1         0.1697951454E-02      0.3444651922E-02

    ------------------------------------------------
       NWT REQUIRED            3 OUTER ITERATIONS 
       AND A TOTAL OF          5 INNER ITERATIONS.
    ------------------------------------------------

 NO OUTPUT CONTROL FOR STRESS PERIOD    7   TIME STEP   29
 
 SOLVING FOR HEAD 
                                                   Max.-Head-Change                         Max.-Flux-Residual
  Residual-Control   Outer-Iter.   Inner-Iter.     Column Row Layer    Maximum-Head-Change  Column Row Layer    Maximum-Flux-Residual          L2-NORM 
          0                 1           2             1    1     1       0.4360674670E-02       1    1    1         0.2264007052E+00      0.4895986867E+00
          0                 2           2             1    1     1      -0.4241753726E-03       1    1    1        -0.2264011249E-01      0.4878494500E-01
          0                 3           1             1    1     1       0.2888476389E-04       1    1    1         0.1584808147E-02      0.3391936612E-02

    ------------------------------------------------
       NWT REQUIRED            3 OUTER ITERATIONS 
       AND A TOTAL OF          5 INNER ITERATIONS.
    ------------------------------------------------

 NO OUTPUT CONTROL FOR STRESS PERIOD    7   TIME STEP   30



 STREAM LISTING     PERIOD      7   STEP       30

 LAYER ROW COL. STREAM  RCH.  FLOW INTO     FLOW TO   FLOW OUT OF   OVRLND.     DIRECT     STREAM       STREAM     STREAM     STREAM   STREAMBED  STREAMBED
                SEG.NO.  NO.  STRM. RCH.    AQUIFER    STRM. RCH.    RUNOFF     PRECIP       ET          HEAD       DEPTH      WIDTH   CONDCTNC.   GRADIENT

   1    1    1     1     1    5.7704E+01  3.6391E-01   5.7340E+01  0.000E+00  0.000E+00  0.000E+00  1.09454E+03  1.497E+00  1.798E+01  8.092E-02  1.499E+00
   1    2    2     1     2    5.7340E+01  5.6353E-01   5.6777E+01  0.000E+00  0.000E+00  0.000E+00  1.08955E+03  1.491E+00  1.792E+01  1.255E-01  1.497E+00
   1    3    3     1     3    5.6777E+01  4.8055E-01   5.6296E+01  0.000E+00  0.000E+00  0.000E+00  1.08390E+03  1.485E+00  1.786E+01  1.071E-01  1.495E+00
   1    3    4     1     4    5.6296E+01  4.4247E-01   5.5854E+01  0.000E+00  0.000E+00  0.000E+00  1.07889E+03  1.479E+00  1.780E+01  9.879E-02  1.493E+00
   1    4    5     2     1    5.3854E+01  3.8295E-01   5.3471E+01  0.000E+00  0.000E+00  0.000E+00  1.07384E+03  1.910E+00  1.200E+01  7.800E-02  1.637E+00
   1    5    6     2     2    5.3471E+01  2.9414E-01   5.3177E+01  0.000E+00  0.000E+00  0.000E+00  1.06841E+03  1.902E+00  1.200E+01  6.000E-02  1.634E+00
   1    6    6     2     3    5.3177E+01  2.9376E-01   5.2883E+01  0.000E+00  0.000E+00  0.000E+00  1.06369E+03  1.896E+00  1.200E+01  6.000E-02  1.632E+00
   1    7    6     2     4    5.2883E+01  2.9339E-01   5.2590E+01  0.000E+00  0.000E+00  0.000E+00  1.05897E+03  1.890E+00  1.200E+01  6.000E-02  1.630E+00
   1    8    6     2     5    5.2590E+01  2.9301E-01   5.2297E+01  0.000E+00  0.000E+00  0.000E+00  1.05424E+03  1.883E+00  1.200E+01  6.000E-02  1.628E+00
   1    3    5     3     1    2.0000E+00  2.8252E-01   1.7175E+00  0.000E+00  0.000E+00  0.000E+00  1.07555E+03  1.909E+00  9.636E+00  7.227E-02  1.955E+00
   1    3    6     3     2    1.7175E+00  2.4905E-01   1.4684E+00  0.000E+00  0.000E+00  0.000E+00  1.07264E+03  1.727E+00  8.909E+00  6.682E-02  1.864E+00
   1    3    7     3     3    1.4684E+00  1.9718E-01   1.2712E+00  0.000E+00  0.000E+00  0.000E+00  1.06987E+03  1.555E+00  8.218E+00  5.547E-02  1.777E+00
   1    4    8     3     4    1.2712E+00  2.2567E-01   1.0456E+00  0.000E+00  0.000E+00  0.000E+00  1.06682E+03  1.364E+00  7.455E+00  6.709E-02  1.682E+00
   1    5    8     3     5    1.0456E+00  1.5790E-01   8.8768E-01  0.000E+00  0.000E+00  0.000E+00  1.06362E+03  1.164E+00  6.655E+00  4.991E-02  1.582E+00
   1    6    8     3     6    8.8768E-01  5.5980E-02   8.3170E-01  0.000E+00  0.000E+00  0.000E+00  1.06158E+03  1.036E+00  6.145E+00  1.844E-02  1.518E+00
   1    5   10     4     1    1.0000E+01  9.0919E-02   9.9091E+00  0.000E+00  0.000E+00  0.000E+00  1.07836E+03  6.368E-01  1.000E+01  2.500E-02  1.212E+00
   1    5    9     4     2    9.9091E+00  1.8158E-01   9.7275E+00  0.000E+00  0.000E+00  0.000E+00  1.07154E+03  6.315E-01  1.000E+01  5.000E-02  1.211E+00
   1    6    8     4     3    9.7275E+00  1.2689E-01   9.6006E+00  0.000E+00  0.000E+00  0.000E+00  1.06381E+03  6.256E-01  1.000E+01  3.500E-02  1.209E+00
   1    6    8     5     1    1.0432E+01  2.2686E-01   1.0205E+01  0.000E+00  0.000E+00  0.000E+00  1.05868E+03  6.790E-01  1.542E+01  6.166E-02  1.226E+00
   1    7    7     5     2    1.0205E+01  2.7894E-01   9.9265E+00  0.000E+00  0.000E+00  0.000E+00  1.05417E+03  6.732E-01  1.519E+01  7.594E-02  1.224E+00
   1    8    7     5     3    9.9265E+00  1.9221E-01   9.7343E+00  0.000E+00  0.000E+00  0.000E+00  1.04992E+03  6.676E-01  1.497E+01  5.241E-02  1.223E+00
   1    8    6     5     4    9.7343E+00  1.3577E-01   9.5985E+00  0.000E+00  0.000E+00  0.000E+00  1.04691E+03  6.637E-01  1.482E+01  3.706E-02  1.221E+00
   1    9    6     6     1    6.1895E+01  3.0603E-01   6.1589E+01  0.000E+00  0.000E+00  0.000E+00  1.04483E+03  2.100E+00  1.200E+01  6.000E-02  1.700E+00
   1   10    7     6     2    6.1589E+01  3.0565E-01   6.1283E+01  0.000E+00  0.000E+00  0.000E+00  1.04028E+03  2.094E+00  1.200E+01  6.000E-02  1.698E+00
   1   11    7     6     3    6.1283E+01  3.0528E-01   6.0978E+01  0.000E+00  0.000E+00  0.000E+00  1.03572E+03  2.088E+00  1.200E+01  6.000E-02  1.696E+00
   1   12    7     6     4    6.0978E+01  3.0490E-01   6.0673E+01  0.000E+00  0.000E+00  0.000E+00  1.03117E+03  2.082E+00  1.200E+01  6.000E-02  1.694E+00
   1   13    7     6     5    6.0673E+01  1.9419E-02   6.0654E+01  0.000E+00  0.000E+00  0.000E+00  1.02799E+03  2.078E+00  1.200E+01  2.400E-02  2.697E-01
   1   14    9     7     1    1.5000E+02  1.3359E+00   1.4866E+02  0.000E+00  0.000E+00  0.000E+00  1.03987E+03  2.288E+00  5.529E+01  5.593E-01  7.961E-01
   1   13    8     7     2    1.4866E+02  1.8167E+00   1.4685E+02  0.000E+00  0.000E+00  0.000E+00  1.03478E+03  2.279E+00  5.526E+01  6.148E-01  9.850E-01
   1   13    7     7     3    1.4685E+02  1.4027E+00   1.4544E+02  0.000E+00  0.000E+00  0.000E+00  1.02969E+03  2.271E+00  5.522E+01  5.585E-01  8.372E-01
   1   13    6     8     1    2.0610E+02  9.8693E-01   2.0511E+02  0.000E+00  0.000E+00  0.000E+00  1.02505E+03  3.170E+00  4.597E+01  4.685E-01  7.023E-01
   1   13    5     8     2    2.0511E+02  1.8467E-01   2.0493E+02  0.000E+00  0.000E+00  0.000E+00  1.01879E+03  3.167E+00  4.592E+01  4.680E-01  1.315E-01
   1   13    4     8     3    2.0493E+02 -2.3255E+00   2.0725E+02  0.000E+00  0.000E+00  0.000E+00  1.01255E+03  3.173E+00  4.601E+01  4.689E+00 -1.653E-01
   1   13    3     8     4    2.0725E+02 -3.4614E+00   2.1071E+02  0.000E+00  0.000E+00  0.000E+00  1.00631E+03  3.190E+00  4.625E+01  4.713E+00 -2.448E-01
   1   13    2     8     5    2.1071E+02 -2.6212E+00   2.1334E+02  0.000E+00  0.000E+00  0.000E+00  1.00008E+03  3.207E+00  4.650E+01  4.739E+00 -1.844E-01
   1   13    1     8     6    2.1334E+02 -2.0215E+00   2.1536E+02  0.000E+00  0.000E+00  0.000E+00  9.95095E+02  3.220E+00  4.669E+01  2.855E+00 -2.360E-01
   1    8    6     9     1    0.0000E+00  0.0000E+00   0.0000E+00  0.000E+00  0.000E+00  0.000E+00  1.07875E+03  0.000E+00  4.000E+00  0.000E+00  1.000E+00
   1    8    5     9     2    0.0000E+00  0.0000E+00   0.0000E+00  0.000E+00  0.000E+00  0.000E+00  1.07825E+03  0.000E+00  4.000E+00  0.000E+00  1.000E+00





UNSATURATED ZONE PACKAGE VOLUMETRIC BUDGET FOR  TIME STEP    30 STRESS PERIOD    7
  ------------------------------------------------------------------------------



     CUMULATIVE VOLUMES      L**3       RATES FOR THIS TIME STEP      L**3/T
     ------------------                 ------------------------

           IN:                                      IN:
           ---                                      ---
        INFILTRATION =    70159420.9692          INFILTRATION =           4.4075

          OUT:                                     OUT:
          ----                                     ----
              UZF ET =    51371085.2910                UZF ET =           4.4075
        UZF RECHARGE =       73224.0000          UZF RECHARGE =       0.0000E+00

            IN - OUT =    18715111.6782              IN - OUT =       0.0000E+00

          STORAGE:                                 STORAGE:
          --------                                 --------
      STORAGE CHANGE =    18715111.4112        STORAGE CHANGE =       1.5531E-14

 PERCENT DISCREPANCY IS DIFFERENCE BETWEEN IN-OUT MINUS CHANGE IN STORAGE
 DIVIDED BY THE AVERAGE OF IN AND OUT TIMES 100

 PERCENT DISCREPANCY =           0.00     PERCENT DISCREPANCY =           0.00






1
  VOLUMETRIC BUDGET FOR ENTIRE MODEL AT END OF TIME STEP   30, STRESS PERIOD   7
  ------------------------------------------------------------------------------

     CUMULATIVE VOLUMES      L**3       RATES FOR THIS TIME STEP      L**3/T
     ------------------                 ------------------------

           IN:                                      IN:
           ---                                      ---
               AG WELLS  =           0.0000                 AG WELLS  =           0.0000
        DIVERSION SEGMEN =      535838.9375          DIVERSION SEGMEN =           0.0000
    TS         GW IRRIGA =           0.0000      TS         GW IRRIGA =           0.0000
    TION         SW IRRI =           0.0000      TION         SW IRRI =           0.0000
    GATION      SYSTEM L =           0.0000      GATION      SYSTEM L =           0.0000
    OSSES GW      SYSTEM =           0.0000      OSSES GW      SYSTEM =           0.0000

                TOTAL IN =      535838.9375                  TOTAL IN =           0.0000

          OUT:                                     OUT:
          ----                                     ----
               AG WELLS  =           0.0000                 AG WELLS  =           0.0000
        DIVERSION SEGMEN =           0.0000          DIVERSION SEGMEN =           0.0000
    TS         GW IRRIGA =           0.0000      TS         GW IRRIGA =           0.0000
    TION         SW IRRI =      535849.6250      TION         SW IRRI =           0.0000
    GATION      SYSTEM L =           0.0000      GATION      SYSTEM L =           0.0000
    OSSES GW      SYSTEM =           0.0000      OSSES GW      SYSTEM =           0.0000

               TOTAL OUT =      535849.6250                 TOTAL OUT =           0.0000

                IN - OUT =         -10.6875                  IN - OUT =           0.0000

     PERCENT DISCREPANCY =          -0.00         PERCENT DISCREPANCY =           0.00



1
  VOLUMETRIC BUDGET FOR ENTIRE MODEL AT END OF TIME STEP   30, STRESS PERIOD   7
  ------------------------------------------------------------------------------

     CUMULATIVE VOLUMES      L**3       RATES FOR THIS TIME STEP      L**3/T
     ------------------                 ------------------------

           IN:                                      IN:
           ---                                      ---
             STORAGE     =    10648446.0000               STORAGE     =           0.6311
       CONSTANT HEAD     =           0.0000         CONSTANT HEAD     =           0.0000
     HEAD DEP BOUNDS     =     4533347.0000       HEAD DEP BOUNDS     =           0.2858
      STREAM LEAKAGE     =   195435312.0000        STREAM LEAKAGE     =          12.7773
        UZF RECHARGE     =       73223.9531          UZF RECHARGE     =           0.0000
               GW ET     =           0.0000                 GW ET     =           0.0000
     SURFACE LEAKAGE     =           0.0000       SURFACE LEAKAGE     =           0.0000
           AG WELLS      =           0.0000             AG WELLS      =           0.0000

                TOTAL IN =   210690320.0000                  TOTAL IN =          13.6942

          OUT:                                     OUT:
          ----                                     ----
             STORAGE     =    38905548.0000               STORAGE     =           2.2779
       CONSTANT HEAD     =           0.0000         CONSTANT HEAD     =           0.0000
     HEAD DEP BOUNDS     =     4641605.0000       HEAD DEP BOUNDS     =           0.2965
      STREAM LEAKAGE     =   164064608.0000        STREAM LEAKAGE     =          10.4296
        UZF RECHARGE     =           0.0000          UZF RECHARGE     =           0.0000
               GW ET     =     3086064.5000                 GW ET     =           0.6906
     SURFACE LEAKAGE     =           0.0000       SURFACE LEAKAGE     =           0.0000
           AG WELLS      =           0.0000             AG WELLS      =           0.0000

               TOTAL OUT =   210697824.0000                 TOTAL OUT =          13.6947

                IN - OUT =       -7504.0000                  IN - OUT =      -4.6349E-04

     PERCENT DISCREPANCY =          -0.00         PERCENT DISCREPANCY =          -0.00






         TIME SUMMARY AT END OF TIME STEP   30 IN STRESS PERIOD    7
                    SECONDS     MINUTES      HOURS       DAYS        YEARS
                    -----------------------------------------------------------
   TIME STEP LENGTH  87667.      1461.1      24.352      1.0147     2.77799E-03
 STRESS PERIOD TIME 2.63000E+06  43833.      730.56      30.440     8.33397E-02
         TOTAL TIME 1.58664E+07 2.64440E+05  4407.3      183.64     0.50278    
1
1
                            STRESS PERIOD NO.    8, LENGTH =   2630000.    
                            -----------------------------------------------

                              NUMBER OF TIME STEPS =    30

                               MULTIPLIER FOR DELT =     1.000

                            INITIAL TIME STEP SIZE =   87666.66    

 REUSING NON-PARAMETER GHB CELLS FROM LAST STRESS PERIOD

      2 GHB CELLS

 REUSING STREAM SEGMENT DATA FROM LAST STRESS PERIOD



            AREAL INFILTRATION RATE
 READING ON UNIT   19 WITH FORMAT: (10F4.0)            

            1           2           3           4           5           6           7           8           9          10
 ........................................................................................................................
   1   1.2000E-09   0.000       0.000       0.000       0.000       0.000       0.000       0.000       0.000       0.000    
   2   2.1000E-09  2.0000E-09  8.0000E-10  8.5000E-09   0.000       0.000       0.000       0.000       0.000       0.000    
   3   5.0000E-10  1.1000E-09  8.8000E-09  5.5000E-09   0.000       0.000       0.000       0.000       0.000       0.000    
   4   8.5000E-09  1.1000E-09  1.1000E-09  1.1000E-09  2.0000E-09   0.000       0.000       0.000       0.000       0.000    
   5   8.5000E-09  1.1000E-09  1.1000E-09  1.1000E-09  1.1000E-09   0.000       0.000       0.000       0.000       0.000    
   6   8.5000E-09  5.2000E-09  2.1000E-09  1.1000E-09  1.5000E-09   0.000       0.000       0.000       0.000       0.000    
   7   8.5000E-09  5.2000E-09  2.1000E-09  1.2000E-09  2.0000E-09   0.000       0.000       0.000       0.000       0.000    
   8   5.0000E-10  5.2000E-09  2.1000E-09  1.2000E-09  5.0000E-09   0.000       0.000       0.000       0.000       0.000    
   9   5.0000E-10  5.2000E-09  2.1000E-09  1.2000E-09  5.0000E-09   0.000       0.000       0.000       0.000       0.000    
  10   5.0000E-10  5.2000E-09  2.1000E-09  1.2000E-09  5.8000E-09   0.000       0.000       0.000       0.000       0.000    
  11   1.0000E-10  1.1000E-09  1.1000E-09  1.2000E-09  5.0000E-09   0.000       0.000       0.000       0.000       0.000    
  12   1.1000E-09  1.1000E-09  1.1000E-09  1.1000E-09  2.0000E-09   0.000       0.000       0.000       0.000       0.000    
  13   1.1000E-09  2.2000E-09  2.2000E-09  2.1000E-09  1.0000E-09   0.000       0.000       0.000       0.000       0.000    
  14   2.0000E-10  5.5000E-09  5.5000E-09  5.2000E-09  1.0000E-09   0.000       0.000       0.000       0.000       0.000    
  15    0.000      8.8000E-09  8.8000E-09   0.000       0.000       0.000       0.000       0.000       0.000       0.000    

                  ET RATE =  4.000000E-07

 USING ET EXTINCTION DEPTH FROM PREVIOUS STRESS PERIOD. CURRENT PERIOD IS:       8

 USING EXTINCTION WATER CONTENT FROM PREVIOUS STRESS PERIOD. CURRENT PERIOD IS:       8

 USING AIR ENTRY PRESSURE FROM PREVIOUS STRESS PERIOD. CURRENT PERIOD IS:       8

 USING ROOT PRESSURE HEAD FROM PREVIOUS STRESS PERIOD. CURRENT PERIOD IS:       8

 USING ROOT ACTIVITY FROM PREVIOUS STRESS PERIOD. CURRENT PERIOD IS:       8

 PROCESSING AG STRESS PERIOD DATA

 READING AG STRESS PERIOD DATA

 READING IRRIGATION SEGMENT

 READING IRRIGATION WELL

 READING SUPPLEMENTAL WELL

 END PROCESSING AG STRESS PERIOD DATA OPTIONS
 
 SOLVING FOR HEAD 
                                                   Max.-Head-Change                         Max.-Flux-Residual
  Residual-Control   Outer-Iter.   Inner-Iter.     Column Row Layer    Maximum-Head-Change  Column Row Layer    Maximum-Flux-Residual          L2-NORM 
          0                 1           2             3   13     1      -0.9519988719E-02       3   13    1        -0.7171406240E+00      0.1082592876E+01
          0                 2           2             3   13     1       0.9093189317E-03       3   13    1         0.7042784666E-01      0.1068435379E+00
          0                 3           1             3   13     1      -0.6035535651E-04       3   13    1        -0.4806121942E-02      0.7348716159E-02

    ------------------------------------------------
       NWT REQUIRED            3 OUTER ITERATIONS 
       AND A TOTAL OF          5 INNER ITERATIONS.
    ------------------------------------------------

 OUTPUT CONTROL FOR STRESS PERIOD    8   TIME STEP    1
    PRINT BUDGET
    SAVE BUDGET
 UBDSV1 SAVING "         STORAGE" ON UNIT 102 AT TIME STEP  1, STRESS PERIOD   8
 UBDSV2 SAVING "   CONSTANT HEAD" ON UNIT 102 AT TIME STEP  1, STRESS PERIOD   8
 UBDSV1 SAVING "FLOW RIGHT FACE " ON UNIT 102 AT TIME STEP  1, STRESS PERIOD   8
 UBDSV1 SAVING "FLOW FRONT FACE " ON UNIT 102 AT TIME STEP  1, STRESS PERIOD   8

  HEAD DEP BOUNDS   PERIOD    8   STEP     1
 BOUNDARY      1   LAYER   1   ROW    13   COL     1   RATE   -0.296479    
 BOUNDARY      2   LAYER   1   ROW    14   COL     9   RATE    0.285761    



 STREAM LISTING     PERIOD      8   STEP        1

 LAYER ROW COL. STREAM  RCH.  FLOW INTO     FLOW TO   FLOW OUT OF   OVRLND.     DIRECT     STREAM       STREAM     STREAM     STREAM   STREAMBED  STREAMBED
                SEG.NO.  NO.  STRM. RCH.    AQUIFER    STRM. RCH.    RUNOFF     PRECIP       ET          HEAD       DEPTH      WIDTH   CONDCTNC.   GRADIENT

   1    1    1     1     1    5.6250E+01  3.5875E-01   5.5891E+01  0.000E+00  0.000E+00  0.000E+00  1.09453E+03  1.479E+00  1.780E+01  8.010E-02  1.493E+00
   1    2    2     1     2    5.5891E+01  5.5550E-01   5.5336E+01  0.000E+00  0.000E+00  0.000E+00  1.08953E+03  1.473E+00  1.774E+01  1.242E-01  1.491E+00
   1    3    3     1     3    5.5336E+01  4.7368E-01   5.4862E+01  0.000E+00  0.000E+00  0.000E+00  1.08389E+03  1.467E+00  1.767E+01  1.060E-01  1.489E+00
   1    3    4     1     4    5.4862E+01  4.3613E-01   5.4426E+01  0.000E+00  0.000E+00  0.000E+00  1.07887E+03  1.461E+00  1.762E+01  9.777E-02  1.487E+00
   1    4    5     2     1    5.2426E+01  3.8056E-01   5.2046E+01  0.000E+00  0.000E+00  0.000E+00  1.07381E+03  1.879E+00  1.200E+01  7.800E-02  1.626E+00
   1    5    6     2     2    5.2046E+01  2.9230E-01   5.1753E+01  0.000E+00  0.000E+00  0.000E+00  1.06838E+03  1.872E+00  1.200E+01  6.000E-02  1.624E+00
   1    6    6     2     3    5.1753E+01  2.9192E-01   5.1461E+01  0.000E+00  0.000E+00  0.000E+00  1.06366E+03  1.865E+00  1.200E+01  6.000E-02  1.622E+00
   1    7    6     2     4    5.1461E+01  2.9154E-01   5.1170E+01  0.000E+00  0.000E+00  0.000E+00  1.05893E+03  1.859E+00  1.200E+01  6.000E-02  1.620E+00
   1    8    6     2     5    5.1170E+01  2.9116E-01   5.0879E+01  0.000E+00  0.000E+00  0.000E+00  1.05421E+03  1.853E+00  1.200E+01  6.000E-02  1.618E+00
   1    3    5     3     1    2.0000E+00  2.8252E-01   1.7175E+00  0.000E+00  0.000E+00  0.000E+00  1.07555E+03  1.909E+00  9.636E+00  7.227E-02  1.955E+00
   1    3    6     3     2    1.7175E+00  2.4905E-01   1.4684E+00  0.000E+00  0.000E+00  0.000E+00  1.07264E+03  1.727E+00  8.909E+00  6.682E-02  1.864E+00
   1    3    7     3     3    1.4684E+00  1.9718E-01   1.2712E+00  0.000E+00  0.000E+00  0.000E+00  1.06987E+03  1.555E+00  8.218E+00  5.547E-02  1.777E+00
   1    4    8     3     4    1.2712E+00  2.2567E-01   1.0456E+00  0.000E+00  0.000E+00  0.000E+00  1.06682E+03  1.364E+00  7.455E+00  6.709E-02  1.682E+00
   1    5    8     3     5    1.0456E+00  1.5790E-01   8.8768E-01  0.000E+00  0.000E+00  0.000E+00  1.06362E+03  1.164E+00  6.655E+00  4.991E-02  1.582E+00
   1    6    8     3     6    8.8768E-01  5.5980E-02   8.3170E-01  0.000E+00  0.000E+00  0.000E+00  1.06158E+03  1.036E+00  6.145E+00  1.844E-02  1.518E+00
   1    5   10     4     1    1.0000E+01  9.0919E-02   9.9091E+00  0.000E+00  0.000E+00  0.000E+00  1.07836E+03  6.368E-01  1.000E+01  2.500E-02  1.212E+00
   1    5    9     4     2    9.9091E+00  1.8158E-01   9.7275E+00  0.000E+00  0.000E+00  0.000E+00  1.07154E+03  6.315E-01  1.000E+01  5.000E-02  1.211E+00
   1    6    8     4     3    9.7275E+00  1.2689E-01   9.6006E+00  0.000E+00  0.000E+00  0.000E+00  1.06381E+03  6.256E-01  1.000E+01  3.500E-02  1.209E+00
   1    6    8     5     1    1.0432E+01  2.2686E-01   1.0205E+01  0.000E+00  0.000E+00  0.000E+00  1.05868E+03  6.790E-01  1.542E+01  6.166E-02  1.226E+00
   1    7    7     5     2    1.0205E+01  2.7894E-01   9.9265E+00  0.000E+00  0.000E+00  0.000E+00  1.05417E+03  6.732E-01  1.519E+01  7.594E-02  1.224E+00
   1    8    7     5     3    9.9265E+00  1.9221E-01   9.7343E+00  0.000E+00  0.000E+00  0.000E+00  1.04992E+03  6.676E-01  1.497E+01  5.241E-02  1.223E+00
   1    8    6     5     4    9.7343E+00  1.3577E-01   9.5985E+00  0.000E+00  0.000E+00  0.000E+00  1.04691E+03  6.637E-01  1.482E+01  3.706E-02  1.221E+00
   1    9    6     6     1    6.0477E+01  3.0429E-01   6.0173E+01  0.000E+00  0.000E+00  0.000E+00  1.04480E+03  2.071E+00  1.200E+01  6.000E-02  1.690E+00
   1   10    7     6     2    6.0173E+01  3.0391E-01   5.9869E+01  0.000E+00  0.000E+00  0.000E+00  1.04025E+03  2.065E+00  1.200E+01  6.000E-02  1.688E+00
   1   11    7     6     3    5.9869E+01  3.0353E-01   5.9565E+01  0.000E+00  0.000E+00  0.000E+00  1.03570E+03  2.059E+00  1.200E+01  6.000E-02  1.686E+00
   1   12    7     6     4    5.9565E+01  3.0316E-01   5.9262E+01  0.000E+00  0.000E+00  0.000E+00  1.03114E+03  2.053E+00  1.200E+01  6.000E-02  1.684E+00
   1   13    7     6     5    5.9262E+01  1.8710E-02   5.9244E+01  0.000E+00  0.000E+00  0.000E+00  1.02796E+03  2.049E+00  1.200E+01  2.400E-02  2.599E-01
   1   14    9     7     1    1.5000E+02  1.3359E+00   1.4866E+02  0.000E+00  0.000E+00  0.000E+00  1.03987E+03  2.288E+00  5.529E+01  5.593E-01  7.961E-01
   1   13    8     7     2    1.4866E+02  1.8166E+00   1.4685E+02  0.000E+00  0.000E+00  0.000E+00  1.03478E+03  2.279E+00  5.526E+01  6.148E-01  9.850E-01
   1   13    7     7     3    1.4685E+02  1.4025E+00   1.4545E+02  0.000E+00  0.000E+00  0.000E+00  1.02969E+03  2.271E+00  5.522E+01  5.585E-01  8.371E-01
   1   13    6     8     1    2.0469E+02  9.8054E-01   2.0371E+02  0.000E+00  0.000E+00  0.000E+00  1.02504E+03  3.162E+00  4.585E+01  4.673E-01  6.995E-01
   1   13    5     8     2    2.0371E+02  1.8044E-01   2.0353E+02  0.000E+00  0.000E+00  0.000E+00  1.01878E+03  3.159E+00  4.580E+01  4.668E-01  1.289E-01
   1   13    4     8     3    2.0353E+02 -2.3202E+00   2.0585E+02  0.000E+00  0.000E+00  0.000E+00  1.01254E+03  3.165E+00  4.589E+01  4.677E+00 -1.654E-01
   1   13    3     8     4    2.0585E+02 -3.4499E+00   2.0930E+02  0.000E+00  0.000E+00  0.000E+00  1.00631E+03  3.182E+00  4.614E+01  4.701E+00 -2.446E-01
   1   13    2     8     5    2.0930E+02 -2.6424E+00   2.1194E+02  0.000E+00  0.000E+00  0.000E+00  1.00007E+03  3.199E+00  4.639E+01  4.727E+00 -1.863E-01
   1   13    1     8     6    2.1194E+02 -2.0353E+00   2.1398E+02  0.000E+00  0.000E+00  0.000E+00  9.95087E+02  3.212E+00  4.658E+01  2.848E+00 -2.382E-01
   1    8    6     9     1    0.0000E+00  0.0000E+00   0.0000E+00  0.000E+00  0.000E+00  0.000E+00  1.07875E+03  0.000E+00  4.000E+00  0.000E+00  1.000E+00
   1    8    5     9     2    0.0000E+00  0.0000E+00   0.0000E+00  0.000E+00  0.000E+00  0.000E+00  1.07825E+03  0.000E+00  4.000E+00  0.000E+00  1.000E+00



 UBDSV3 SAVING "           GW ET" ON UNIT  61 AT TIME STEP  1, STRESS PERIOD   8
 UBDSV3 SAVING "    UZF RECHARGE" ON UNIT  61 AT TIME STEP  1, STRESS PERIOD   8
 UBDSV3 SAVING " SURFACE LEAKAGE" ON UNIT  61 AT TIME STEP  1, STRESS PERIOD   8
 UBDSV3 SAVING "       HORT+DUNN" ON UNIT  61 AT TIME STEP  1, STRESS PERIOD   8
 UBDSV3 SAVING "  STORAGE CHANGE" ON UNIT  61 AT TIME STEP  1, STRESS PERIOD   8


UNSATURATED ZONE PACKAGE VOLUMETRIC BUDGET FOR  TIME STEP     1 STRESS PERIOD    8
  ------------------------------------------------------------------------------



     CUMULATIVE VOLUMES      L**3       RATES FOR THIS TIME STEP      L**3/T
     ------------------                 ------------------------

           IN:                                      IN:
           ---                                      ---
        INFILTRATION =    70545811.7878          INFILTRATION =           4.4075

          OUT:                                     OUT:
          ----                                     ----
              UZF ET =    51757476.1096                UZF ET =           4.4075
        UZF RECHARGE =       73224.0000          UZF RECHARGE =       0.0000E+00

            IN - OUT =    18715111.6782              IN - OUT =       0.0000E+00

          STORAGE:                                 STORAGE:
          --------                                 --------
      STORAGE CHANGE =    18715111.4112        STORAGE CHANGE =      -1.1121E-14

 PERCENT DISCREPANCY IS DIFFERENCE BETWEEN IN-OUT MINUS CHANGE IN STORAGE
 DIVIDED BY THE AVERAGE OF IN AND OUT TIMES 100

 PERCENT DISCREPANCY =           0.00     PERCENT DISCREPANCY =           0.00






 

            AG WELLS      PERIOD    8   STEP   1
 AG WELL      1   LAYER   1   ROW     6   COL     4   RATE     0.00000    
 AG WELL      2   LAYER   1   ROW     6   COL     5   RATE     0.00000    
 AG WELL      3   LAYER   1   ROW     7   COL     4   RATE     0.00000    
 AG WELL      4   LAYER   1   ROW     7   COL     5   RATE     0.00000    
 AG WELL      5   LAYER   1   ROW     8   COL     4   RATE     0.00000    
 AG WELL      6   LAYER   1   ROW     8   COL     5   RATE     0.00000    
 
 

   DIVERSION SEGMENTS     PERIOD    8   STEP   1
 SEGMENT      9   RATE     0.00000    
 
 

        SW IRRIGATION     PERIOD    8   STEP   1
 SEGMENT      9   ROW     6   COL     4   RATE     0.00000    
 SEGMENT      9   ROW     6   COL     5   RATE     0.00000    
 SEGMENT      9   ROW     7   COL     4   RATE     0.00000    
 SEGMENT      9   ROW     7   COL     5   RATE     0.00000    
 SEGMENT      9   ROW     8   COL     4   RATE     0.00000    
 SEGMENT      9   ROW     8   COL     5   RATE     0.00000    
 
 

        GW IRRIGATION     PERIOD    8   STEP   1
 AG WELL      1   ROW     6   COL     4   RATE     0.00000    
 AG WELL      2   ROW     6   COL     5   RATE     0.00000    
 AG WELL      3   ROW     7   COL     4   RATE     0.00000    
 AG WELL      4   ROW     7   COL     5   RATE     0.00000    
 AG WELL      5   ROW     8   COL     4   RATE     0.00000    
 AG WELL      6   ROW     8   COL     5   RATE     0.00000    
 
1
  VOLUMETRIC BUDGET FOR ENTIRE MODEL AT END OF TIME STEP    1, STRESS PERIOD   8
  ------------------------------------------------------------------------------

     CUMULATIVE VOLUMES      L**3       RATES FOR THIS TIME STEP      L**3/T
     ------------------                 ------------------------

           IN:                                      IN:
           ---                                      ---
               AG WELLS  =           0.0000                 AG WELLS  =           0.0000
        DIVERSION SEGMEN =      535838.9375          DIVERSION SEGMEN =           0.0000
    TS         GW IRRIGA =           0.0000      TS         GW IRRIGA =           0.0000
    TION         SW IRRI =           0.0000      TION         SW IRRI =           0.0000
    GATION      SYSTEM L =           0.0000      GATION      SYSTEM L =           0.0000
    OSSES GW      SYSTEM =           0.0000      OSSES GW      SYSTEM =           0.0000

                TOTAL IN =      535838.9375                  TOTAL IN =           0.0000

          OUT:                                     OUT:
          ----                                     ----
               AG WELLS  =           0.0000                 AG WELLS  =           0.0000
        DIVERSION SEGMEN =           0.0000          DIVERSION SEGMEN =           0.0000
    TS         GW IRRIGA =           0.0000      TS         GW IRRIGA =           0.0000
    TION         SW IRRI =      535849.6250      TION         SW IRRI =           0.0000
    GATION      SYSTEM L =           0.0000      GATION      SYSTEM L =           0.0000
    OSSES GW      SYSTEM =           0.0000      OSSES GW      SYSTEM =           0.0000

               TOTAL OUT =      535849.6250                 TOTAL OUT =           0.0000

                IN - OUT =         -10.6875                  IN - OUT =           0.0000

     PERCENT DISCREPANCY =          -0.00         PERCENT DISCREPANCY =           0.00



1
  VOLUMETRIC BUDGET FOR ENTIRE MODEL AT END OF TIME STEP    1, STRESS PERIOD   8
  ------------------------------------------------------------------------------

     CUMULATIVE VOLUMES      L**3       RATES FOR THIS TIME STEP      L**3/T
     ------------------                 ------------------------

           IN:                                      IN:
           ---                                      ---
             STORAGE     =    10777354.0000               STORAGE     =           1.4704
       CONSTANT HEAD     =           0.0000         CONSTANT HEAD     =           0.0000
     HEAD DEP BOUNDS     =     4558398.5000       HEAD DEP BOUNDS     =           0.2858
      STREAM LEAKAGE     =   196550656.0000        STREAM LEAKAGE     =          12.7225
        UZF RECHARGE     =       73223.9531          UZF RECHARGE     =           0.0000
               GW ET     =           0.0000                 GW ET     =           0.0000
     SURFACE LEAKAGE     =           0.0000       SURFACE LEAKAGE     =           0.0000
           AG WELLS      =           0.0000             AG WELLS      =           0.0000

                TOTAL IN =   211959616.0000                  TOTAL IN =          14.4787

          OUT:                                     OUT:
          ----                                     ----
             STORAGE     =    39099040.0000               STORAGE     =           2.2071
       CONSTANT HEAD     =           0.0000         CONSTANT HEAD     =           0.0000
     HEAD DEP BOUNDS     =     4667596.5000       HEAD DEP BOUNDS     =           0.2965
      STREAM LEAKAGE     =   164980528.0000        STREAM LEAKAGE     =          10.4478
        UZF RECHARGE     =           0.0000          UZF RECHARGE     =           0.0000
               GW ET     =     3219967.7500                 GW ET     =           1.5274
     SURFACE LEAKAGE     =           0.0000       SURFACE LEAKAGE     =           0.0000
           AG WELLS      =           0.0000             AG WELLS      =           0.0000

               TOTAL OUT =   211967136.0000                 TOTAL OUT =          14.4788

                IN - OUT =       -7520.0000                  IN - OUT =      -1.1826E-04

     PERCENT DISCREPANCY =          -0.00         PERCENT DISCREPANCY =          -0.00






         TIME SUMMARY AT END OF TIME STEP    1 IN STRESS PERIOD    8
                    SECONDS     MINUTES      HOURS       DAYS        YEARS
                    -----------------------------------------------------------
   TIME STEP LENGTH  87667.      1461.1      24.352      1.0147     2.77799E-03
 STRESS PERIOD TIME  87667.      1461.1      24.352      1.0147     2.77799E-03
         TOTAL TIME 1.59541E+07 2.65901E+05  4431.7      184.65     0.50555    
1
 
 SOLVING FOR HEAD 
                                                   Max.-Head-Change                         Max.-Flux-Residual
  Residual-Control   Outer-Iter.   Inner-Iter.     Column Row Layer    Maximum-Head-Change  Column Row Layer    Maximum-Flux-Residual          L2-NORM 
          0                 1           2             3   13     1      -0.6574543449E-02       3   13    1        -0.4949929006E+00      0.8170516685E+00
          0                 2           2             3   13     1       0.6280033982E-03       3   13    1         0.4861321258E-01      0.8073206156E-01
          0                 3           1             3   13     1      -0.4166719110E-04       3   13    1        -0.3316150905E-02      0.5559894797E-02

    ------------------------------------------------
       NWT REQUIRED            3 OUTER ITERATIONS 
       AND A TOTAL OF          5 INNER ITERATIONS.
    ------------------------------------------------

 NO OUTPUT CONTROL FOR STRESS PERIOD    8   TIME STEP    2
 
 SOLVING FOR HEAD 
                                                   Max.-Head-Change                         Max.-Flux-Residual
  Residual-Control   Outer-Iter.   Inner-Iter.     Column Row Layer    Maximum-Head-Change  Column Row Layer    Maximum-Flux-Residual          L2-NORM 
          0                 1           2             3   13     1      -0.4543632351E-02       3   13    1        -0.3418414333E+00      0.6535943123E+00
          0                 2           2             3   13     1       0.4340643584E-03       3   13    1         0.3357626773E-01      0.6471354954E-01
          0                 3           1             3   13     1      -0.2881909770E-04       3   13    1        -0.2291945089E-02      0.4470257462E-02

    ------------------------------------------------
       NWT REQUIRED            3 OUTER ITERATIONS 
       AND A TOTAL OF          5 INNER ITERATIONS.
    ------------------------------------------------

 NO OUTPUT CONTROL FOR STRESS PERIOD    8   TIME STEP    3
 
 SOLVING FOR HEAD 
                                                   Max.-Head-Change                         Max.-Flux-Residual
  Residual-Control   Outer-Iter.   Inner-Iter.     Column Row Layer    Maximum-Head-Change  Column Row Layer    Maximum-Flux-Residual          L2-NORM 
          0                 1           2             1    1     1       0.4241360099E-02       3   13    1        -0.2362441859E+00      0.5584628094E+00
          0                 2           2             1    1     1      -0.4125692741E-03       3   13    1         0.2320797473E-01      0.5543243028E-01
          0                 3           1             1    1     1       0.2809443231E-04       3   13    1        -0.1585798575E-02      0.3842081941E-02

    ------------------------------------------------
       NWT REQUIRED            3 OUTER ITERATIONS 
       AND A TOTAL OF          5 INNER ITERATIONS.
    ------------------------------------------------

 NO OUTPUT CONTROL FOR STRESS PERIOD    8   TIME STEP    4
 
 SOLVING FOR HEAD 
                                                   Max.-Head-Change                         Max.-Flux-Residual
  Residual-Control   Outer-Iter.   Inner-Iter.     Column Row Layer    Maximum-Head-Change  Column Row Layer    Maximum-Flux-Residual          L2-NORM 
          0                 1           2             1    1     1       0.4236466627E-02       1    1    1         0.2199470520E+00      0.5058709117E+00
          0                 2           2             1    1     1      -0.4120932699E-03       1    1    1        -0.2199474407E-01      0.5032790776E-01
          0                 3           1             1    1     1       0.2806201825E-04       1    1    1         0.1539632384E-02      0.3499069312E-02

    ------------------------------------------------
       NWT REQUIRED            3 OUTER ITERATIONS 
       AND A TOTAL OF          5 INNER ITERATIONS.
    ------------------------------------------------

 OUTPUT CONTROL FOR STRESS PERIOD    8   TIME STEP    5
    PRINT BUDGET
    SAVE BUDGET
 UBDSV1 SAVING "         STORAGE" ON UNIT 102 AT TIME STEP  5, STRESS PERIOD   8
 UBDSV2 SAVING "   CONSTANT HEAD" ON UNIT 102 AT TIME STEP  5, STRESS PERIOD   8
 UBDSV1 SAVING "FLOW RIGHT FACE " ON UNIT 102 AT TIME STEP  5, STRESS PERIOD   8
 UBDSV1 SAVING "FLOW FRONT FACE " ON UNIT 102 AT TIME STEP  5, STRESS PERIOD   8

  HEAD DEP BOUNDS   PERIOD    8   STEP     5
 BOUNDARY      1   LAYER   1   ROW    13   COL     1   RATE   -0.296306    
 BOUNDARY      2   LAYER   1   ROW    14   COL     9   RATE    0.285761    



 STREAM LISTING     PERIOD      8   STEP        5

 LAYER ROW COL. STREAM  RCH.  FLOW INTO     FLOW TO   FLOW OUT OF   OVRLND.     DIRECT     STREAM       STREAM     STREAM     STREAM   STREAMBED  STREAMBED
                SEG.NO.  NO.  STRM. RCH.    AQUIFER    STRM. RCH.    RUNOFF     PRECIP       ET          HEAD       DEPTH      WIDTH   CONDCTNC.   GRADIENT

   1    1    1     1     1    5.6250E+01  3.5875E-01   5.5891E+01  0.000E+00  0.000E+00  0.000E+00  1.09453E+03  1.479E+00  1.780E+01  8.010E-02  1.493E+00
   1    2    2     1     2    5.5891E+01  5.5550E-01   5.5336E+01  0.000E+00  0.000E+00  0.000E+00  1.08953E+03  1.473E+00  1.774E+01  1.242E-01  1.491E+00
   1    3    3     1     3    5.5336E+01  4.7368E-01   5.4862E+01  0.000E+00  0.000E+00  0.000E+00  1.08389E+03  1.467E+00  1.767E+01  1.060E-01  1.489E+00
   1    3    4     1     4    5.4862E+01  4.3613E-01   5.4426E+01  0.000E+00  0.000E+00  0.000E+00  1.07887E+03  1.461E+00  1.762E+01  9.777E-02  1.487E+00
   1    4    5     2     1    5.2426E+01  3.8056E-01   5.2046E+01  0.000E+00  0.000E+00  0.000E+00  1.07381E+03  1.879E+00  1.200E+01  7.800E-02  1.626E+00
   1    5    6     2     2    5.2046E+01  2.9230E-01   5.1753E+01  0.000E+00  0.000E+00  0.000E+00  1.06838E+03  1.872E+00  1.200E+01  6.000E-02  1.624E+00
   1    6    6     2     3    5.1753E+01  2.9192E-01   5.1461E+01  0.000E+00  0.000E+00  0.000E+00  1.06366E+03  1.865E+00  1.200E+01  6.000E-02  1.622E+00
   1    7    6     2     4    5.1461E+01  2.9154E-01   5.1170E+01  0.000E+00  0.000E+00  0.000E+00  1.05893E+03  1.859E+00  1.200E+01  6.000E-02  1.620E+00
   1    8    6     2     5    5.1170E+01  2.9116E-01   5.0879E+01  0.000E+00  0.000E+00  0.000E+00  1.05421E+03  1.853E+00  1.200E+01  6.000E-02  1.618E+00
   1    3    5     3     1    2.0000E+00  2.8252E-01   1.7175E+00  0.000E+00  0.000E+00  0.000E+00  1.07555E+03  1.909E+00  9.636E+00  7.227E-02  1.955E+00
   1    3    6     3     2    1.7175E+00  2.4905E-01   1.4684E+00  0.000E+00  0.000E+00  0.000E+00  1.07264E+03  1.727E+00  8.909E+00  6.682E-02  1.864E+00
   1    3    7     3     3    1.4684E+00  1.9718E-01   1.2712E+00  0.000E+00  0.000E+00  0.000E+00  1.06987E+03  1.555E+00  8.218E+00  5.547E-02  1.777E+00
   1    4    8     3     4    1.2712E+00  2.2567E-01   1.0456E+00  0.000E+00  0.000E+00  0.000E+00  1.06682E+03  1.364E+00  7.455E+00  6.709E-02  1.682E+00
   1    5    8     3     5    1.0456E+00  1.5790E-01   8.8768E-01  0.000E+00  0.000E+00  0.000E+00  1.06362E+03  1.164E+00  6.655E+00  4.991E-02  1.582E+00
   1    6    8     3     6    8.8768E-01  5.5980E-02   8.3170E-01  0.000E+00  0.000E+00  0.000E+00  1.06158E+03  1.036E+00  6.145E+00  1.844E-02  1.518E+00
   1    5   10     4     1    1.0000E+01  9.0919E-02   9.9091E+00  0.000E+00  0.000E+00  0.000E+00  1.07836E+03  6.368E-01  1.000E+01  2.500E-02  1.212E+00
   1    5    9     4     2    9.9091E+00  1.8158E-01   9.7275E+00  0.000E+00  0.000E+00  0.000E+00  1.07154E+03  6.315E-01  1.000E+01  5.000E-02  1.211E+00
   1    6    8     4     3    9.7275E+00  1.2689E-01   9.6006E+00  0.000E+00  0.000E+00  0.000E+00  1.06381E+03  6.256E-01  1.000E+01  3.500E-02  1.209E+00
   1    6    8     5     1    1.0432E+01  2.2686E-01   1.0205E+01  0.000E+00  0.000E+00  0.000E+00  1.05868E+03  6.790E-01  1.542E+01  6.166E-02  1.226E+00
   1    7    7     5     2    1.0205E+01  2.7894E-01   9.9265E+00  0.000E+00  0.000E+00  0.000E+00  1.05417E+03  6.732E-01  1.519E+01  7.594E-02  1.224E+00
   1    8    7     5     3    9.9265E+00  1.9221E-01   9.7343E+00  0.000E+00  0.000E+00  0.000E+00  1.04992E+03  6.676E-01  1.497E+01  5.241E-02  1.223E+00
   1    8    6     5     4    9.7343E+00  1.3577E-01   9.5985E+00  0.000E+00  0.000E+00  0.000E+00  1.04691E+03  6.637E-01  1.482E+01  3.706E-02  1.221E+00
   1    9    6     6     1    6.0477E+01  3.0429E-01   6.0173E+01  0.000E+00  0.000E+00  0.000E+00  1.04480E+03  2.071E+00  1.200E+01  6.000E-02  1.690E+00
   1   10    7     6     2    6.0173E+01  3.0391E-01   5.9869E+01  0.000E+00  0.000E+00  0.000E+00  1.04025E+03  2.065E+00  1.200E+01  6.000E-02  1.688E+00
   1   11    7     6     3    5.9869E+01  3.0353E-01   5.9565E+01  0.000E+00  0.000E+00  0.000E+00  1.03570E+03  2.059E+00  1.200E+01  6.000E-02  1.686E+00
   1   12    7     6     4    5.9565E+01  3.0316E-01   5.9262E+01  0.000E+00  0.000E+00  0.000E+00  1.03114E+03  2.053E+00  1.200E+01  6.000E-02  1.684E+00
   1   13    7     6     5    5.9262E+01  1.8672E-02   5.9244E+01  0.000E+00  0.000E+00  0.000E+00  1.02796E+03  2.049E+00  1.200E+01  2.400E-02  2.593E-01
   1   14    9     7     1    1.5000E+02  1.3358E+00   1.4866E+02  0.000E+00  0.000E+00  0.000E+00  1.03987E+03  2.288E+00  5.529E+01  5.593E-01  7.961E-01
   1   13    8     7     2    1.4866E+02  1.8161E+00   1.4685E+02  0.000E+00  0.000E+00  0.000E+00  1.03478E+03  2.279E+00  5.526E+01  6.148E-01  9.847E-01
   1   13    7     7     3    1.4685E+02  1.4016E+00   1.4545E+02  0.000E+00  0.000E+00  0.000E+00  1.02969E+03  2.271E+00  5.522E+01  5.585E-01  8.366E-01
   1   13    6     8     1    2.0469E+02  9.8034E-01   2.0371E+02  0.000E+00  0.000E+00  0.000E+00  1.02504E+03  3.162E+00  4.585E+01  4.673E-01  6.994E-01
   1   13    5     8     2    2.0371E+02  1.8075E-01   2.0353E+02  0.000E+00  0.000E+00  0.000E+00  1.01878E+03  3.159E+00  4.580E+01  4.668E-01  1.291E-01
   1   13    4     8     3    2.0353E+02 -2.2574E+00   2.0579E+02  0.000E+00  0.000E+00  0.000E+00  1.01254E+03  3.165E+00  4.589E+01  4.676E+00 -1.609E-01
   1   13    3     8     4    2.0579E+02 -3.3815E+00   2.0917E+02  0.000E+00  0.000E+00  0.000E+00  1.00631E+03  3.181E+00  4.613E+01  4.701E+00 -2.398E-01
   1   13    2     8     5    2.0917E+02 -2.6114E+00   2.1178E+02  0.000E+00  0.000E+00  0.000E+00  1.00007E+03  3.198E+00  4.638E+01  4.726E+00 -1.842E-01
   1   13    1     8     6    2.1178E+02 -2.0244E+00   2.1380E+02  0.000E+00  0.000E+00  0.000E+00  9.95087E+02  3.212E+00  4.657E+01  2.847E+00 -2.370E-01
   1    8    6     9     1    0.0000E+00  0.0000E+00   0.0000E+00  0.000E+00  0.000E+00  0.000E+00  1.07875E+03  0.000E+00  4.000E+00  0.000E+00  1.000E+00
   1    8    5     9     2    0.0000E+00  0.0000E+00   0.0000E+00  0.000E+00  0.000E+00  0.000E+00  1.07825E+03  0.000E+00  4.000E+00  0.000E+00  1.000E+00



 UBDSV3 SAVING "           GW ET" ON UNIT  61 AT TIME STEP  5, STRESS PERIOD   8
 UBDSV3 SAVING "    UZF RECHARGE" ON UNIT  61 AT TIME STEP  5, STRESS PERIOD   8
 UBDSV3 SAVING " SURFACE LEAKAGE" ON UNIT  61 AT TIME STEP  5, STRESS PERIOD   8
 UBDSV3 SAVING "       HORT+DUNN" ON UNIT  61 AT TIME STEP  5, STRESS PERIOD   8
 UBDSV3 SAVING "  STORAGE CHANGE" ON UNIT  61 AT TIME STEP  5, STRESS PERIOD   8


UNSATURATED ZONE PACKAGE VOLUMETRIC BUDGET FOR  TIME STEP     5 STRESS PERIOD    8
  ------------------------------------------------------------------------------



     CUMULATIVE VOLUMES      L**3       RATES FOR THIS TIME STEP      L**3/T
     ------------------                 ------------------------

           IN:                                      IN:
           ---                                      ---
        INFILTRATION =    72091375.0623          INFILTRATION =           4.4075

          OUT:                                     OUT:
          ----                                     ----
              UZF ET =    53303039.3840                UZF ET =           4.4075
        UZF RECHARGE =       73224.0000          UZF RECHARGE =       0.0000E+00

            IN - OUT =    18715111.6782              IN - OUT =       0.0000E+00

          STORAGE:                                 STORAGE:
          --------                                 --------
      STORAGE CHANGE =    18715111.4112        STORAGE CHANGE =      -5.2287E-15

 PERCENT DISCREPANCY IS DIFFERENCE BETWEEN IN-OUT MINUS CHANGE IN STORAGE
 DIVIDED BY THE AVERAGE OF IN AND OUT TIMES 100

 PERCENT DISCREPANCY =           0.00     PERCENT DISCREPANCY =           0.00






 

            AG WELLS      PERIOD    8   STEP   5
 AG WELL      1   LAYER   1   ROW     6   COL     4   RATE     0.00000    
 AG WELL      2   LAYER   1   ROW     6   COL     5   RATE     0.00000    
 AG WELL      3   LAYER   1   ROW     7   COL     4   RATE     0.00000    
 AG WELL      4   LAYER   1   ROW     7   COL     5   RATE     0.00000    
 AG WELL      5   LAYER   1   ROW     8   COL     4   RATE     0.00000    
 AG WELL      6   LAYER   1   ROW     8   COL     5   RATE     0.00000    
 
 

   DIVERSION SEGMENTS     PERIOD    8   STEP   5
 SEGMENT      9   RATE     0.00000    
 
 

        SW IRRIGATION     PERIOD    8   STEP   5
 SEGMENT      9   ROW     6   COL     4   RATE     0.00000    
 SEGMENT      9   ROW     6   COL     5   RATE     0.00000    
 SEGMENT      9   ROW     7   COL     4   RATE     0.00000    
 SEGMENT      9   ROW     7   COL     5   RATE     0.00000    
 SEGMENT      9   ROW     8   COL     4   RATE     0.00000    
 SEGMENT      9   ROW     8   COL     5   RATE     0.00000    
 
 

        GW IRRIGATION     PERIOD    8   STEP   5
 AG WELL      1   ROW     6   COL     4   RATE     0.00000    
 AG WELL      2   ROW     6   COL     5   RATE     0.00000    
 AG WELL      3   ROW     7   COL     4   RATE     0.00000    
 AG WELL      4   ROW     7   COL     5   RATE     0.00000    
 AG WELL      5   ROW     8   COL     4   RATE     0.00000    
 AG WELL      6   ROW     8   COL     5   RATE     0.00000    
 
1
  VOLUMETRIC BUDGET FOR ENTIRE MODEL AT END OF TIME STEP    5, STRESS PERIOD   8
  ------------------------------------------------------------------------------

     CUMULATIVE VOLUMES      L**3       RATES FOR THIS TIME STEP      L**3/T
     ------------------                 ------------------------

           IN:                                      IN:
           ---                                      ---
               AG WELLS  =           0.0000                 AG WELLS  =           0.0000
        DIVERSION SEGMEN =      535838.9375          DIVERSION SEGMEN =           0.0000
    TS         GW IRRIGA =           0.0000      TS         GW IRRIGA =           0.0000
    TION         SW IRRI =           0.0000      TION         SW IRRI =           0.0000
    GATION      SYSTEM L =           0.0000      GATION      SYSTEM L =           0.0000
    OSSES GW      SYSTEM =           0.0000      OSSES GW      SYSTEM =           0.0000

                TOTAL IN =      535838.9375                  TOTAL IN =           0.0000

          OUT:                                     OUT:
          ----                                     ----
               AG WELLS  =           0.0000                 AG WELLS  =           0.0000
        DIVERSION SEGMEN =           0.0000          DIVERSION SEGMEN =           0.0000
    TS         GW IRRIGA =           0.0000      TS         GW IRRIGA =           0.0000
    TION         SW IRRI =      535849.6250      TION         SW IRRI =           0.0000
    GATION      SYSTEM L =           0.0000      GATION      SYSTEM L =           0.0000
    OSSES GW      SYSTEM =           0.0000      OSSES GW      SYSTEM =           0.0000

               TOTAL OUT =      535849.6250                 TOTAL OUT =           0.0000

                IN - OUT =         -10.6875                  IN - OUT =           0.0000

     PERCENT DISCREPANCY =          -0.00         PERCENT DISCREPANCY =           0.00



1
  VOLUMETRIC BUDGET FOR ENTIRE MODEL AT END OF TIME STEP    5, STRESS PERIOD   8
  ------------------------------------------------------------------------------

     CUMULATIVE VOLUMES      L**3       RATES FOR THIS TIME STEP      L**3/T
     ------------------                 ------------------------

           IN:                                      IN:
           ---                                      ---
             STORAGE     =    11094937.0000               STORAGE     =           0.6970
       CONSTANT HEAD     =           0.0000         CONSTANT HEAD     =           0.0000
     HEAD DEP BOUNDS     =     4658604.5000       HEAD DEP BOUNDS     =           0.2858
      STREAM LEAKAGE     =   201011728.0000        STREAM LEAKAGE     =          12.7212
        UZF RECHARGE     =       73223.9531          UZF RECHARGE     =           0.0000
               GW ET     =           0.0000                 GW ET     =           0.0000
     SURFACE LEAKAGE     =           0.0000       SURFACE LEAKAGE     =           0.0000
           AG WELLS      =           0.0000             AG WELLS      =           0.0000

                TOTAL IN =   216838480.0000                  TOTAL IN =          13.7040

          OUT:                                     OUT:
          ----                                     ----
             STORAGE     =    39864808.0000               STORAGE     =           2.1740
       CONSTANT HEAD     =           0.0000         CONSTANT HEAD     =           0.0000
     HEAD DEP BOUNDS     =     4771523.5000       HEAD DEP BOUNDS     =           0.2963
      STREAM LEAKAGE     =   168601008.0000        STREAM LEAKAGE     =          10.2747
        UZF RECHARGE     =           0.0000          UZF RECHARGE     =           0.0000
               GW ET     =     3608787.5000                 GW ET     =           0.9593
     SURFACE LEAKAGE     =           0.0000       SURFACE LEAKAGE     =           0.0000
           AG WELLS      =           0.0000             AG WELLS      =           0.0000

               TOTAL OUT =   216846128.0000                 TOTAL OUT =          13.7044

                IN - OUT =       -7648.0000                  IN - OUT =      -3.9768E-04

     PERCENT DISCREPANCY =          -0.00         PERCENT DISCREPANCY =          -0.00






         TIME SUMMARY AT END OF TIME STEP    5 IN STRESS PERIOD    8
                    SECONDS     MINUTES      HOURS       DAYS        YEARS
                    -----------------------------------------------------------
   TIME STEP LENGTH  87667.      1461.1      24.352      1.0147     2.77799E-03
 STRESS PERIOD TIME 4.38333E+05  7305.6      121.76      5.0733     1.38899E-02
         TOTAL TIME 1.63048E+07 2.71746E+05  4529.1      188.71     0.51667    
1
 
 SOLVING FOR HEAD 
                                                   Max.-Head-Change                         Max.-Flux-Residual
  Residual-Control   Outer-Iter.   Inner-Iter.     Column Row Layer    Maximum-Head-Change  Column Row Layer    Maximum-Flux-Residual          L2-NORM 
          0                 1           2             1    1     1       0.4231612024E-02       1    1    1         0.2196944827E+00      0.4776508267E+00
          0                 2           2             1    1     1      -0.4116210470E-03       1    1    1        -0.2196948698E-01      0.4760281584E-01
          0                 3           1             1    1     1       0.2802986169E-04       1    1    1         0.1537864390E-02      0.3316804955E-02

    ------------------------------------------------
       NWT REQUIRED            3 OUTER ITERATIONS 
       AND A TOTAL OF          5 INNER ITERATIONS.
    ------------------------------------------------

 NO OUTPUT CONTROL FOR STRESS PERIOD    8   TIME STEP    6
 
 SOLVING FOR HEAD 
                                                   Max.-Head-Change                         Max.-Flux-Residual
  Residual-Control   Outer-Iter.   Inner-Iter.     Column Row Layer    Maximum-Head-Change  Column Row Layer    Maximum-Flux-Residual          L2-NORM 
          0                 1           2             1    1     1       0.4226751908E-02       1    1    1         0.2194416302E+00      0.4624790090E+00
          0                 2           2             1    1     1      -0.4111482877E-03       1    1    1        -0.2194420156E-01      0.4614399092E-01
          0                 3           1             1    1     1       0.2799766844E-04       1    1    1         0.1536094413E-02      0.3220121526E-02

    ------------------------------------------------
       NWT REQUIRED            3 OUTER ITERATIONS 
       AND A TOTAL OF          5 INNER ITERATIONS.
    ------------------------------------------------

 NO OUTPUT CONTROL FOR STRESS PERIOD    8   TIME STEP    7
 
 SOLVING FOR HEAD 
                                                   Max.-Head-Change                         Max.-Flux-Residual
  Residual-Control   Outer-Iter.   Inner-Iter.     Column Row Layer    Maximum-Head-Change  Column Row Layer    Maximum-Flux-Residual          L2-NORM 
          0                 1           2             1    1     1       0.4221930523E-02       1    1    1         0.2191907907E+00      0.4540157912E+00
          0                 2           2             1    1     1      -0.4106792957E-03       1    1    1        -0.2191911744E-01      0.4533292316E-01
          0                 3           1             1    1     1       0.2796573175E-04       1    1    1         0.1534338525E-02      0.3167041746E-02

    ------------------------------------------------
       NWT REQUIRED            3 OUTER ITERATIONS 
       AND A TOTAL OF          5 INNER ITERATIONS.
    ------------------------------------------------

 NO OUTPUT CONTROL FOR STRESS PERIOD    8   TIME STEP    8
 
 SOLVING FOR HEAD 
                                                   Max.-Head-Change                         Max.-Flux-Residual
  Residual-Control   Outer-Iter.   Inner-Iter.     Column Row Layer    Maximum-Head-Change  Column Row Layer    Maximum-Flux-Residual          L2-NORM 
          0                 1           2             1    1     1       0.4217103492E-02       1    1    1         0.2189396603E+00      0.4489551702E+00
          0                 2           2             1    1     1      -0.4102097546E-03       1    1    1        -0.2189400422E-01      0.4484884347E-01
          0                 3           1             1    1     1       0.2793375790E-04       1    1    1         0.1532580597E-02      0.3135146084E-02

    ------------------------------------------------
       NWT REQUIRED            3 OUTER ITERATIONS 
       AND A TOTAL OF          5 INNER ITERATIONS.
    ------------------------------------------------

 NO OUTPUT CONTROL FOR STRESS PERIOD    8   TIME STEP    9
 
 SOLVING FOR HEAD 
                                                   Max.-Head-Change                         Max.-Flux-Residual
  Residual-Control   Outer-Iter.   Inner-Iter.     Column Row Layer    Maximum-Head-Change  Column Row Layer    Maximum-Flux-Residual          L2-NORM 
          0                 1           2             1    1     1       0.4212315087E-02       1    1    1         0.2186905365E+00      0.4456307111E+00
          0                 2           2             1    1     1      -0.4097439706E-03       1    1    1        -0.2186909167E-01      0.4452948956E-01
          0                 3           1             1    1     1       0.2790203966E-04       1    1    1         0.1530836710E-02      0.3113727540E-02

    ------------------------------------------------
       NWT REQUIRED            3 OUTER ITERATIONS 
       AND A TOTAL OF          5 INNER ITERATIONS.
    ------------------------------------------------

 OUTPUT CONTROL FOR STRESS PERIOD    8   TIME STEP   10
    PRINT BUDGET
    SAVE BUDGET
 UBDSV1 SAVING "         STORAGE" ON UNIT 102 AT TIME STEP 10, STRESS PERIOD   8
 UBDSV2 SAVING "   CONSTANT HEAD" ON UNIT 102 AT TIME STEP 10, STRESS PERIOD   8
 UBDSV1 SAVING "FLOW RIGHT FACE " ON UNIT 102 AT TIME STEP 10, STRESS PERIOD   8
 UBDSV1 SAVING "FLOW FRONT FACE " ON UNIT 102 AT TIME STEP 10, STRESS PERIOD   8

  HEAD DEP BOUNDS   PERIOD    8   STEP    10
 BOUNDARY      1   LAYER   1   ROW    13   COL     1   RATE   -0.296129    
 BOUNDARY      2   LAYER   1   ROW    14   COL     9   RATE    0.285759    



 STREAM LISTING     PERIOD      8   STEP       10

 LAYER ROW COL. STREAM  RCH.  FLOW INTO     FLOW TO   FLOW OUT OF   OVRLND.     DIRECT     STREAM       STREAM     STREAM     STREAM   STREAMBED  STREAMBED
                SEG.NO.  NO.  STRM. RCH.    AQUIFER    STRM. RCH.    RUNOFF     PRECIP       ET          HEAD       DEPTH      WIDTH   CONDCTNC.   GRADIENT

   1    1    1     1     1    5.6250E+01  3.5875E-01   5.5891E+01  0.000E+00  0.000E+00  0.000E+00  1.09453E+03  1.479E+00  1.780E+01  8.010E-02  1.493E+00
   1    2    2     1     2    5.5891E+01  5.5550E-01   5.5336E+01  0.000E+00  0.000E+00  0.000E+00  1.08953E+03  1.473E+00  1.774E+01  1.242E-01  1.491E+00
   1    3    3     1     3    5.5336E+01  4.7368E-01   5.4862E+01  0.000E+00  0.000E+00  0.000E+00  1.08389E+03  1.467E+00  1.767E+01  1.060E-01  1.489E+00
   1    3    4     1     4    5.4862E+01  4.3613E-01   5.4426E+01  0.000E+00  0.000E+00  0.000E+00  1.07887E+03  1.461E+00  1.762E+01  9.777E-02  1.487E+00
   1    4    5     2     1    5.2426E+01  3.8056E-01   5.2046E+01  0.000E+00  0.000E+00  0.000E+00  1.07381E+03  1.879E+00  1.200E+01  7.800E-02  1.626E+00
   1    5    6     2     2    5.2046E+01  2.9230E-01   5.1753E+01  0.000E+00  0.000E+00  0.000E+00  1.06838E+03  1.872E+00  1.200E+01  6.000E-02  1.624E+00
   1    6    6     2     3    5.1753E+01  2.9192E-01   5.1461E+01  0.000E+00  0.000E+00  0.000E+00  1.06366E+03  1.865E+00  1.200E+01  6.000E-02  1.622E+00
   1    7    6     2     4    5.1461E+01  2.9154E-01   5.1170E+01  0.000E+00  0.000E+00  0.000E+00  1.05893E+03  1.859E+00  1.200E+01  6.000E-02  1.620E+00
   1    8    6     2     5    5.1170E+01  2.9116E-01   5.0879E+01  0.000E+00  0.000E+00  0.000E+00  1.05421E+03  1.853E+00  1.200E+01  6.000E-02  1.618E+00
   1    3    5     3     1    2.0000E+00  2.8252E-01   1.7175E+00  0.000E+00  0.000E+00  0.000E+00  1.07555E+03  1.909E+00  9.636E+00  7.227E-02  1.955E+00
   1    3    6     3     2    1.7175E+00  2.4905E-01   1.4684E+00  0.000E+00  0.000E+00  0.000E+00  1.07264E+03  1.727E+00  8.909E+00  6.682E-02  1.864E+00
   1    3    7     3     3    1.4684E+00  1.9718E-01   1.2712E+00  0.000E+00  0.000E+00  0.000E+00  1.06987E+03  1.555E+00  8.218E+00  5.547E-02  1.777E+00
   1    4    8     3     4    1.2712E+00  2.2567E-01   1.0456E+00  0.000E+00  0.000E+00  0.000E+00  1.06682E+03  1.364E+00  7.455E+00  6.709E-02  1.682E+00
   1    5    8     3     5    1.0456E+00  1.5790E-01   8.8768E-01  0.000E+00  0.000E+00  0.000E+00  1.06362E+03  1.164E+00  6.655E+00  4.991E-02  1.582E+00
   1    6    8     3     6    8.8768E-01  5.5980E-02   8.3170E-01  0.000E+00  0.000E+00  0.000E+00  1.06158E+03  1.036E+00  6.145E+00  1.844E-02  1.518E+00
   1    5   10     4     1    1.0000E+01  9.0919E-02   9.9091E+00  0.000E+00  0.000E+00  0.000E+00  1.07836E+03  6.368E-01  1.000E+01  2.500E-02  1.212E+00
   1    5    9     4     2    9.9091E+00  1.8158E-01   9.7275E+00  0.000E+00  0.000E+00  0.000E+00  1.07154E+03  6.315E-01  1.000E+01  5.000E-02  1.211E+00
   1    6    8     4     3    9.7275E+00  1.2689E-01   9.6006E+00  0.000E+00  0.000E+00  0.000E+00  1.06381E+03  6.256E-01  1.000E+01  3.500E-02  1.209E+00
   1    6    8     5     1    1.0432E+01  2.2686E-01   1.0205E+01  0.000E+00  0.000E+00  0.000E+00  1.05868E+03  6.790E-01  1.542E+01  6.166E-02  1.226E+00
   1    7    7     5     2    1.0205E+01  2.7894E-01   9.9265E+00  0.000E+00  0.000E+00  0.000E+00  1.05417E+03  6.732E-01  1.519E+01  7.594E-02  1.224E+00
   1    8    7     5     3    9.9265E+00  1.9221E-01   9.7343E+00  0.000E+00  0.000E+00  0.000E+00  1.04992E+03  6.676E-01  1.497E+01  5.241E-02  1.223E+00
   1    8    6     5     4    9.7343E+00  1.3577E-01   9.5985E+00  0.000E+00  0.000E+00  0.000E+00  1.04691E+03  6.637E-01  1.482E+01  3.706E-02  1.221E+00
   1    9    6     6     1    6.0477E+01  3.0429E-01   6.0173E+01  0.000E+00  0.000E+00  0.000E+00  1.04480E+03  2.071E+00  1.200E+01  6.000E-02  1.690E+00
   1   10    7     6     2    6.0173E+01  3.0391E-01   5.9869E+01  0.000E+00  0.000E+00  0.000E+00  1.04025E+03  2.065E+00  1.200E+01  6.000E-02  1.688E+00
   1   11    7     6     3    5.9869E+01  3.0353E-01   5.9565E+01  0.000E+00  0.000E+00  0.000E+00  1.03570E+03  2.059E+00  1.200E+01  6.000E-02  1.686E+00
   1   12    7     6     4    5.9565E+01  3.0316E-01   5.9262E+01  0.000E+00  0.000E+00  0.000E+00  1.03114E+03  2.053E+00  1.200E+01  6.000E-02  1.684E+00
   1   13    7     6     5    5.9262E+01  1.8628E-02   5.9244E+01  0.000E+00  0.000E+00  0.000E+00  1.02796E+03  2.049E+00  1.200E+01  2.400E-02  2.587E-01
   1   14    9     7     1    1.5000E+02  1.3358E+00   1.4866E+02  0.000E+00  0.000E+00  0.000E+00  1.03987E+03  2.288E+00  5.529E+01  5.593E-01  7.961E-01
   1   13    8     7     2    1.4866E+02  1.8155E+00   1.4685E+02  0.000E+00  0.000E+00  0.000E+00  1.03478E+03  2.279E+00  5.526E+01  6.148E-01  9.844E-01
   1   13    7     7     3    1.4685E+02  1.4006E+00   1.4545E+02  0.000E+00  0.000E+00  0.000E+00  1.02969E+03  2.271E+00  5.522E+01  5.585E-01  8.360E-01
   1   13    6     8     1    2.0469E+02  9.8003E-01   2.0371E+02  0.000E+00  0.000E+00  0.000E+00  1.02504E+03  3.162E+00  4.585E+01  4.673E-01  6.991E-01
   1   13    5     8     2    2.0371E+02  1.8112E-01   2.0353E+02  0.000E+00  0.000E+00  0.000E+00  1.01878E+03  3.159E+00  4.580E+01  4.668E-01  1.293E-01
   1   13    4     8     3    2.0353E+02 -2.2421E+00   2.0577E+02  0.000E+00  0.000E+00  0.000E+00  1.01254E+03  3.165E+00  4.589E+01  4.676E+00 -1.598E-01
   1   13    3     8     4    2.0577E+02 -3.3642E+00   2.0914E+02  0.000E+00  0.000E+00  0.000E+00  1.00631E+03  3.181E+00  4.613E+01  4.700E+00 -2.386E-01
   1   13    2     8     5    2.0914E+02 -2.5826E+00   2.1172E+02  0.000E+00  0.000E+00  0.000E+00  1.00007E+03  3.198E+00  4.637E+01  4.726E+00 -1.822E-01
   1   13    1     8     6    2.1172E+02 -2.0119E+00   2.1373E+02  0.000E+00  0.000E+00  0.000E+00  9.95086E+02  3.211E+00  4.656E+01  2.847E+00 -2.356E-01
   1    8    6     9     1    0.0000E+00  0.0000E+00   0.0000E+00  0.000E+00  0.000E+00  0.000E+00  1.07875E+03  0.000E+00  4.000E+00  0.000E+00  1.000E+00
   1    8    5     9     2    0.0000E+00  0.0000E+00   0.0000E+00  0.000E+00  0.000E+00  0.000E+00  1.07825E+03  0.000E+00  4.000E+00  0.000E+00  1.000E+00



 UBDSV3 SAVING "           GW ET" ON UNIT  61 AT TIME STEP 10, STRESS PERIOD   8
 UBDSV3 SAVING "    UZF RECHARGE" ON UNIT  61 AT TIME STEP 10, STRESS PERIOD   8
 UBDSV3 SAVING " SURFACE LEAKAGE" ON UNIT  61 AT TIME STEP 10, STRESS PERIOD   8
 UBDSV3 SAVING "       HORT+DUNN" ON UNIT  61 AT TIME STEP 10, STRESS PERIOD   8
 UBDSV3 SAVING "  STORAGE CHANGE" ON UNIT  61 AT TIME STEP 10, STRESS PERIOD   8


UNSATURATED ZONE PACKAGE VOLUMETRIC BUDGET FOR  TIME STEP    10 STRESS PERIOD    8
  ------------------------------------------------------------------------------



     CUMULATIVE VOLUMES      L**3       RATES FOR THIS TIME STEP      L**3/T
     ------------------                 ------------------------

           IN:                                      IN:
           ---                                      ---
        INFILTRATION =    74023329.1553          INFILTRATION =           4.4075

          OUT:                                     OUT:
          ----                                     ----
              UZF ET =    55234993.4771                UZF ET =           4.4075
        UZF RECHARGE =       73224.0000          UZF RECHARGE =       0.0000E+00

            IN - OUT =    18715111.6782              IN - OUT =       0.0000E+00

          STORAGE:                                 STORAGE:
          --------                                 --------
      STORAGE CHANGE =    18715111.4112        STORAGE CHANGE =       8.0506E-15

 PERCENT DISCREPANCY IS DIFFERENCE BETWEEN IN-OUT MINUS CHANGE IN STORAGE
 DIVIDED BY THE AVERAGE OF IN AND OUT TIMES 100

 PERCENT DISCREPANCY =           0.00     PERCENT DISCREPANCY =           0.00






 

            AG WELLS      PERIOD    8   STEP  10
 AG WELL      1   LAYER   1   ROW     6   COL     4   RATE     0.00000    
 AG WELL      2   LAYER   1   ROW     6   COL     5   RATE     0.00000    
 AG WELL      3   LAYER   1   ROW     7   COL     4   RATE     0.00000    
 AG WELL      4   LAYER   1   ROW     7   COL     5   RATE     0.00000    
 AG WELL      5   LAYER   1   ROW     8   COL     4   RATE     0.00000    
 AG WELL      6   LAYER   1   ROW     8   COL     5   RATE     0.00000    
 
 

   DIVERSION SEGMENTS     PERIOD    8   STEP  10
 SEGMENT      9   RATE     0.00000    
 
 

        SW IRRIGATION     PERIOD    8   STEP  10
 SEGMENT      9   ROW     6   COL     4   RATE     0.00000    
 SEGMENT      9   ROW     6   COL     5   RATE     0.00000    
 SEGMENT      9   ROW     7   COL     4   RATE     0.00000    
 SEGMENT      9   ROW     7   COL     5   RATE     0.00000    
 SEGMENT      9   ROW     8   COL     4   RATE     0.00000    
 SEGMENT      9   ROW     8   COL     5   RATE     0.00000    
 
 

        GW IRRIGATION     PERIOD    8   STEP  10
 AG WELL      1   ROW     6   COL     4   RATE     0.00000    
 AG WELL      2   ROW     6   COL     5   RATE     0.00000    
 AG WELL      3   ROW     7   COL     4   RATE     0.00000    
 AG WELL      4   ROW     7   COL     5   RATE     0.00000    
 AG WELL      5   ROW     8   COL     4   RATE     0.00000    
 AG WELL      6   ROW     8   COL     5   RATE     0.00000    
 
1
  VOLUMETRIC BUDGET FOR ENTIRE MODEL AT END OF TIME STEP   10, STRESS PERIOD   8
  ------------------------------------------------------------------------------

     CUMULATIVE VOLUMES      L**3       RATES FOR THIS TIME STEP      L**3/T
     ------------------                 ------------------------

           IN:                                      IN:
           ---                                      ---
               AG WELLS  =           0.0000                 AG WELLS  =           0.0000
        DIVERSION SEGMEN =      535838.9375          DIVERSION SEGMEN =           0.0000
    TS         GW IRRIGA =           0.0000      TS         GW IRRIGA =           0.0000
    TION         SW IRRI =           0.0000      TION         SW IRRI =           0.0000
    GATION      SYSTEM L =           0.0000      GATION      SYSTEM L =           0.0000
    OSSES GW      SYSTEM =           0.0000      OSSES GW      SYSTEM =           0.0000

                TOTAL IN =      535838.9375                  TOTAL IN =           0.0000

          OUT:                                     OUT:
          ----                                     ----
               AG WELLS  =           0.0000                 AG WELLS  =           0.0000
        DIVERSION SEGMEN =           0.0000          DIVERSION SEGMEN =           0.0000
    TS         GW IRRIGA =           0.0000      TS         GW IRRIGA =           0.0000
    TION         SW IRRI =      535849.6250      TION         SW IRRI =           0.0000
    GATION      SYSTEM L =           0.0000      GATION      SYSTEM L =           0.0000
    OSSES GW      SYSTEM =           0.0000      OSSES GW      SYSTEM =           0.0000

               TOTAL OUT =      535849.6250                 TOTAL OUT =           0.0000

                IN - OUT =         -10.6875                  IN - OUT =           0.0000

     PERCENT DISCREPANCY =          -0.00         PERCENT DISCREPANCY =           0.00



1
  VOLUMETRIC BUDGET FOR ENTIRE MODEL AT END OF TIME STEP   10, STRESS PERIOD   8
  ------------------------------------------------------------------------------

     CUMULATIVE VOLUMES      L**3       RATES FOR THIS TIME STEP      L**3/T
     ------------------                 ------------------------

           IN:                                      IN:
           ---                                      ---
             STORAGE     =    11328294.0000               STORAGE     =           0.4659
       CONSTANT HEAD     =           0.0000         CONSTANT HEAD     =           0.0000
     HEAD DEP BOUNDS     =     4783862.0000       HEAD DEP BOUNDS     =           0.2858
      STREAM LEAKAGE     =   206587456.0000        STREAM LEAKAGE     =          12.7196
        UZF RECHARGE     =       73223.9531          UZF RECHARGE     =           0.0000
               GW ET     =           0.0000                 GW ET     =           0.0000
     SURFACE LEAKAGE     =           0.0000       SURFACE LEAKAGE     =           0.0000
           AG WELLS      =           0.0000             AG WELLS      =           0.0000

                TOTAL IN =   222772832.0000                  TOTAL IN =          13.4713

          OUT:                                     OUT:
          ----                                     ----
             STORAGE     =    40812868.0000               STORAGE     =           2.1568
       CONSTANT HEAD     =           0.0000         CONSTANT HEAD     =           0.0000
     HEAD DEP BOUNDS     =     4901356.5000       HEAD DEP BOUNDS     =           0.2961
      STREAM LEAKAGE     =   173082848.0000        STREAM LEAKAGE     =          10.2007
        UZF RECHARGE     =           0.0000          UZF RECHARGE     =           0.0000
               GW ET     =     3983596.0000                 GW ET     =           0.8182
     SURFACE LEAKAGE     =           0.0000       SURFACE LEAKAGE     =           0.0000
           AG WELLS      =           0.0000             AG WELLS      =           0.0000

               TOTAL OUT =   222780672.0000                 TOTAL OUT =          13.4718

                IN - OUT =       -7840.0000                  IN - OUT =      -4.7493E-04

     PERCENT DISCREPANCY =          -0.00         PERCENT DISCREPANCY =          -0.00






         TIME SUMMARY AT END OF TIME STEP   10 IN STRESS PERIOD    8
                    SECONDS     MINUTES      HOURS       DAYS        YEARS
                    -----------------------------------------------------------
   TIME STEP LENGTH  87667.      1461.1      24.352      1.0147     2.77799E-03
 STRESS PERIOD TIME 8.76667E+05  14611.      243.52      10.147     2.77799E-02
         TOTAL TIME 1.67431E+07 2.79052E+05  4650.9      193.79     0.53056    
1
 
 SOLVING FOR HEAD 
                                                   Max.-Head-Change                         Max.-Flux-Residual
  Residual-Control   Outer-Iter.   Inner-Iter.     Column Row Layer    Maximum-Head-Change  Column Row Layer    Maximum-Flux-Residual          L2-NORM 
          0                 1           2             1    1     1       0.4207520930E-02       1    1    1         0.2184411157E+00      0.4432184932E+00
          0                 2           2             1    1     1      -0.4092776275E-03       1    1    1        -0.2184414944E-01      0.4429712480E-01
          0                 3           1             1    1     1       0.2787028355E-04       1    1    1         0.1529090761E-02      0.3098522575E-02

    ------------------------------------------------
       NWT REQUIRED            3 OUTER ITERATIONS 
       AND A TOTAL OF          5 INNER ITERATIONS.
    ------------------------------------------------

 NO OUTPUT CONTROL FOR STRESS PERIOD    8   TIME STEP   11
 
 SOLVING FOR HEAD 
                                                   Max.-Head-Change                         Max.-Flux-Residual
  Residual-Control   Outer-Iter.   Inner-Iter.     Column Row Layer    Maximum-Head-Change  Column Row Layer    Maximum-Flux-Residual          L2-NORM 
          0                 1           2             1    1     1       0.4202698803E-02       1    1    1         0.2181902452E+00      0.4413289053E+00
          0                 2           2             1    1     1      -0.4088085635E-03       1    1    1        -0.2181906221E-01      0.4411424129E-01
          0                 3           1             1    1     1       0.2783834213E-04       1    1    1         0.1527334656E-02      0.3086310668E-02

    ------------------------------------------------
       NWT REQUIRED            3 OUTER ITERATIONS 
       AND A TOTAL OF          5 INNER ITERATIONS.
    ------------------------------------------------

 NO OUTPUT CONTROL FOR STRESS PERIOD    8   TIME STEP   12
 
 SOLVING FOR HEAD 
                                                   Max.-Head-Change                         Max.-Flux-Residual
  Residual-Control   Outer-Iter.   Inner-Iter.     Column Row Layer    Maximum-Head-Change  Column Row Layer    Maximum-Flux-Residual          L2-NORM 
          0                 1           2             1    1     1       0.4197959490E-02       1    1    1         0.2179436774E+00      0.4397425106E+00
          0                 2           2             1    1     1      -0.4083475550E-03       1    1    1        -0.2179440526E-01      0.4395959936E-01
          0                 3           1             1    1     1       0.2780694931E-04       1    1    1         0.1525608679E-02      0.3075804766E-02

    ------------------------------------------------
       NWT REQUIRED            3 OUTER ITERATIONS 
       AND A TOTAL OF          5 INNER ITERATIONS.
    ------------------------------------------------

 NO OUTPUT CONTROL FOR STRESS PERIOD    8   TIME STEP   13
 
 SOLVING FOR HEAD 
                                                   Max.-Head-Change                         Max.-Flux-Residual
  Residual-Control   Outer-Iter.   Inner-Iter.     Column Row Layer    Maximum-Head-Change  Column Row Layer    Maximum-Flux-Residual          L2-NORM 
          0                 1           2             1    1     1       0.4193214231E-02       1    1    1         0.2176968016E+00      0.4383537834E+00
          0                 2           2             1    1     1      -0.4078859680E-03       1    1    1        -0.2176971751E-01      0.4382385694E-01
          0                 3           1             1    1     1       0.2777551673E-04       1    1    1         0.1523880543E-02      0.3066578737E-02

    ------------------------------------------------
       NWT REQUIRED            3 OUTER ITERATIONS 
       AND A TOTAL OF          5 INNER ITERATIONS.
    ------------------------------------------------

 NO OUTPUT CONTROL FOR STRESS PERIOD    8   TIME STEP   14
 
 SOLVING FOR HEAD 
                                                   Max.-Head-Change                         Max.-Flux-Residual
  Residual-Control   Outer-Iter.   Inner-Iter.     Column Row Layer    Maximum-Head-Change  Column Row Layer    Maximum-Flux-Residual          L2-NORM 
          0                 1           2             1    1     1       0.4188485146E-02       1    1    1         0.2174507677E+00      0.4371081617E+00
          0                 2           2             1    1     1      -0.4074259544E-03       1    1    1        -0.2174511396E-01      0.4370146631E-01
          0                 3           1             1    1     1       0.2774419137E-04       1    1    1         0.1522158276E-02      0.3058177165E-02

    ------------------------------------------------
       NWT REQUIRED            3 OUTER ITERATIONS 
       AND A TOTAL OF          5 INNER ITERATIONS.
    ------------------------------------------------

 OUTPUT CONTROL FOR STRESS PERIOD    8   TIME STEP   15
    PRINT BUDGET
    SAVE BUDGET
 UBDSV1 SAVING "         STORAGE" ON UNIT 102 AT TIME STEP 15, STRESS PERIOD   8
 UBDSV2 SAVING "   CONSTANT HEAD" ON UNIT 102 AT TIME STEP 15, STRESS PERIOD   8
 UBDSV1 SAVING "FLOW RIGHT FACE " ON UNIT 102 AT TIME STEP 15, STRESS PERIOD   8
 UBDSV1 SAVING "FLOW FRONT FACE " ON UNIT 102 AT TIME STEP 15, STRESS PERIOD   8

  HEAD DEP BOUNDS   PERIOD    8   STEP    15
 BOUNDARY      1   LAYER   1   ROW    13   COL     1   RATE   -0.295988    
 BOUNDARY      2   LAYER   1   ROW    14   COL     9   RATE    0.285758    



 STREAM LISTING     PERIOD      8   STEP       15

 LAYER ROW COL. STREAM  RCH.  FLOW INTO     FLOW TO   FLOW OUT OF   OVRLND.     DIRECT     STREAM       STREAM     STREAM     STREAM   STREAMBED  STREAMBED
                SEG.NO.  NO.  STRM. RCH.    AQUIFER    STRM. RCH.    RUNOFF     PRECIP       ET          HEAD       DEPTH      WIDTH   CONDCTNC.   GRADIENT

   1    1    1     1     1    5.6250E+01  3.5874E-01   5.5891E+01  0.000E+00  0.000E+00  0.000E+00  1.09453E+03  1.479E+00  1.780E+01  8.010E-02  1.493E+00
   1    2    2     1     2    5.5891E+01  5.5550E-01   5.5335E+01  0.000E+00  0.000E+00  0.000E+00  1.08953E+03  1.473E+00  1.774E+01  1.242E-01  1.491E+00
   1    3    3     1     3    5.5335E+01  4.7368E-01   5.4862E+01  0.000E+00  0.000E+00  0.000E+00  1.08389E+03  1.467E+00  1.767E+01  1.060E-01  1.489E+00
   1    3    4     1     4    5.4862E+01  4.3613E-01   5.4426E+01  0.000E+00  0.000E+00  0.000E+00  1.07887E+03  1.461E+00  1.762E+01  9.777E-02  1.487E+00
   1    4    5     2     1    5.2426E+01  3.8056E-01   5.2045E+01  0.000E+00  0.000E+00  0.000E+00  1.07381E+03  1.879E+00  1.200E+01  7.800E-02  1.626E+00
   1    5    6     2     2    5.2045E+01  2.9230E-01   5.1753E+01  0.000E+00  0.000E+00  0.000E+00  1.06838E+03  1.872E+00  1.200E+01  6.000E-02  1.624E+00
   1    6    6     2     3    5.1753E+01  2.9192E-01   5.1461E+01  0.000E+00  0.000E+00  0.000E+00  1.06366E+03  1.865E+00  1.200E+01  6.000E-02  1.622E+00
   1    7    6     2     4    5.1461E+01  2.9154E-01   5.1169E+01  0.000E+00  0.000E+00  0.000E+00  1.05893E+03  1.859E+00  1.200E+01  6.000E-02  1.620E+00
   1    8    6     2     5    5.1169E+01  2.9116E-01   5.0878E+01  0.000E+00  0.000E+00  0.000E+00  1.05421E+03  1.853E+00  1.200E+01  6.000E-02  1.618E+00
   1    3    5     3     1    2.0000E+00  2.8252E-01   1.7175E+00  0.000E+00  0.000E+00  0.000E+00  1.07555E+03  1.909E+00  9.636E+00  7.227E-02  1.955E+00
   1    3    6     3     2    1.7175E+00  2.4905E-01   1.4684E+00  0.000E+00  0.000E+00  0.000E+00  1.07264E+03  1.727E+00  8.909E+00  6.682E-02  1.864E+00
   1    3    7     3     3    1.4684E+00  1.9718E-01   1.2712E+00  0.000E+00  0.000E+00  0.000E+00  1.06987E+03  1.555E+00  8.218E+00  5.547E-02  1.777E+00
   1    4    8     3     4    1.2712E+00  2.2567E-01   1.0456E+00  0.000E+00  0.000E+00  0.000E+00  1.06682E+03  1.364E+00  7.455E+00  6.709E-02  1.682E+00
   1    5    8     3     5    1.0456E+00  1.5790E-01   8.8768E-01  0.000E+00  0.000E+00  0.000E+00  1.06362E+03  1.164E+00  6.655E+00  4.991E-02  1.582E+00
   1    6    8     3     6    8.8768E-01  5.5980E-02   8.3170E-01  0.000E+00  0.000E+00  0.000E+00  1.06158E+03  1.036E+00  6.145E+00  1.844E-02  1.518E+00
   1    5   10     4     1    1.0000E+01  9.0919E-02   9.9091E+00  0.000E+00  0.000E+00  0.000E+00  1.07836E+03  6.368E-01  1.000E+01  2.500E-02  1.212E+00
   1    5    9     4     2    9.9091E+00  1.8158E-01   9.7275E+00  0.000E+00  0.000E+00  0.000E+00  1.07154E+03  6.315E-01  1.000E+01  5.000E-02  1.211E+00
   1    6    8     4     3    9.7275E+00  1.2689E-01   9.6006E+00  0.000E+00  0.000E+00  0.000E+00  1.06381E+03  6.256E-01  1.000E+01  3.500E-02  1.209E+00
   1    6    8     5     1    1.0432E+01  2.2686E-01   1.0205E+01  0.000E+00  0.000E+00  0.000E+00  1.05868E+03  6.790E-01  1.542E+01  6.166E-02  1.226E+00
   1    7    7     5     2    1.0205E+01  2.7894E-01   9.9265E+00  0.000E+00  0.000E+00  0.000E+00  1.05417E+03  6.732E-01  1.519E+01  7.594E-02  1.224E+00
   1    8    7     5     3    9.9265E+00  1.9221E-01   9.7343E+00  0.000E+00  0.000E+00  0.000E+00  1.04992E+03  6.676E-01  1.497E+01  5.241E-02  1.223E+00
   1    8    6     5     4    9.7343E+00  1.3577E-01   9.5985E+00  0.000E+00  0.000E+00  0.000E+00  1.04691E+03  6.637E-01  1.482E+01  3.706E-02  1.221E+00
   1    9    6     6     1    6.0477E+01  3.0428E-01   6.0172E+01  0.000E+00  0.000E+00  0.000E+00  1.04480E+03  2.071E+00  1.200E+01  6.000E-02  1.690E+00
   1   10    7     6     2    6.0172E+01  3.0391E-01   5.9868E+01  0.000E+00  0.000E+00  0.000E+00  1.04025E+03  2.065E+00  1.200E+01  6.000E-02  1.688E+00
   1   11    7     6     3    5.9868E+01  3.0353E-01   5.9565E+01  0.000E+00  0.000E+00  0.000E+00  1.03570E+03  2.059E+00  1.200E+01  6.000E-02  1.686E+00
   1   12    7     6     4    5.9565E+01  3.0315E-01   5.9262E+01  0.000E+00  0.000E+00  0.000E+00  1.03114E+03  2.053E+00  1.200E+01  6.000E-02  1.684E+00
   1   13    7     6     5    5.9262E+01  1.8586E-02   5.9243E+01  0.000E+00  0.000E+00  0.000E+00  1.02796E+03  2.049E+00  1.200E+01  2.400E-02  2.581E-01
   1   14    9     7     1    1.5000E+02  1.3358E+00   1.4866E+02  0.000E+00  0.000E+00  0.000E+00  1.03987E+03  2.288E+00  5.529E+01  5.593E-01  7.961E-01
   1   13    8     7     2    1.4866E+02  1.8150E+00   1.4685E+02  0.000E+00  0.000E+00  0.000E+00  1.03478E+03  2.279E+00  5.526E+01  6.148E-01  9.841E-01
   1   13    7     7     3    1.4685E+02  1.3996E+00   1.4545E+02  0.000E+00  0.000E+00  0.000E+00  1.02969E+03  2.271E+00  5.522E+01  5.585E-01  8.354E-01
   1   13    6     8     1    2.0469E+02  9.7968E-01   2.0371E+02  0.000E+00  0.000E+00  0.000E+00  1.02504E+03  3.162E+00  4.585E+01  4.673E-01  6.989E-01
   1   13    5     8     2    2.0371E+02  1.8135E-01   2.0353E+02  0.000E+00  0.000E+00  0.000E+00  1.01878E+03  3.159E+00  4.580E+01  4.668E-01  1.295E-01
   1   13    4     8     3    2.0353E+02 -2.2397E+00   2.0577E+02  0.000E+00  0.000E+00  0.000E+00  1.01254E+03  3.165E+00  4.589E+01  4.676E+00 -1.596E-01
   1   13    3     8     4    2.0577E+02 -3.3611E+00   2.0913E+02  0.000E+00  0.000E+00  0.000E+00  1.00631E+03  3.181E+00  4.613E+01  4.700E+00 -2.384E-01
   1   13    2     8     5    2.0913E+02 -2.5637E+00   2.1170E+02  0.000E+00  0.000E+00  0.000E+00  1.00007E+03  3.198E+00  4.637E+01  4.725E+00 -1.808E-01
   1   13    1     8     6    2.1170E+02 -2.0018E+00   2.1370E+02  0.000E+00  0.000E+00  0.000E+00  9.95086E+02  3.211E+00  4.656E+01  2.847E+00 -2.344E-01
   1    8    6     9     1    0.0000E+00  0.0000E+00   0.0000E+00  0.000E+00  0.000E+00  0.000E+00  1.07875E+03  0.000E+00  4.000E+00  0.000E+00  1.000E+00
   1    8    5     9     2    0.0000E+00  0.0000E+00   0.0000E+00  0.000E+00  0.000E+00  0.000E+00  1.07825E+03  0.000E+00  4.000E+00  0.000E+00  1.000E+00



 UBDSV3 SAVING "           GW ET" ON UNIT  61 AT TIME STEP 15, STRESS PERIOD   8
 UBDSV3 SAVING "    UZF RECHARGE" ON UNIT  61 AT TIME STEP 15, STRESS PERIOD   8
 UBDSV3 SAVING " SURFACE LEAKAGE" ON UNIT  61 AT TIME STEP 15, STRESS PERIOD   8
 UBDSV3 SAVING "       HORT+DUNN" ON UNIT  61 AT TIME STEP 15, STRESS PERIOD   8
 UBDSV3 SAVING "  STORAGE CHANGE" ON UNIT  61 AT TIME STEP 15, STRESS PERIOD   8


UNSATURATED ZONE PACKAGE VOLUMETRIC BUDGET FOR  TIME STEP    15 STRESS PERIOD    8
  ------------------------------------------------------------------------------



     CUMULATIVE VOLUMES      L**3       RATES FOR THIS TIME STEP      L**3/T
     ------------------                 ------------------------

           IN:                                      IN:
           ---                                      ---
        INFILTRATION =    75955283.2483          INFILTRATION =           4.4075

          OUT:                                     OUT:
          ----                                     ----
              UZF ET =    57166947.5701                UZF ET =           4.4075
        UZF RECHARGE =       73224.0000          UZF RECHARGE =       0.0000E+00

            IN - OUT =    18715111.6782              IN - OUT =       0.0000E+00

          STORAGE:                                 STORAGE:
          --------                                 --------
      STORAGE CHANGE =    18715111.4112        STORAGE CHANGE =       1.7263E-14

 PERCENT DISCREPANCY IS DIFFERENCE BETWEEN IN-OUT MINUS CHANGE IN STORAGE
 DIVIDED BY THE AVERAGE OF IN AND OUT TIMES 100

 PERCENT DISCREPANCY =           0.00     PERCENT DISCREPANCY =           0.00






 

            AG WELLS      PERIOD    8   STEP  15
 AG WELL      1   LAYER   1   ROW     6   COL     4   RATE     0.00000    
 AG WELL      2   LAYER   1   ROW     6   COL     5   RATE     0.00000    
 AG WELL      3   LAYER   1   ROW     7   COL     4   RATE     0.00000    
 AG WELL      4   LAYER   1   ROW     7   COL     5   RATE     0.00000    
 AG WELL      5   LAYER   1   ROW     8   COL     4   RATE     0.00000    
 AG WELL      6   LAYER   1   ROW     8   COL     5   RATE     0.00000    
 
 

   DIVERSION SEGMENTS     PERIOD    8   STEP  15
 SEGMENT      9   RATE     0.00000    
 
 

        SW IRRIGATION     PERIOD    8   STEP  15
 SEGMENT      9   ROW     6   COL     4   RATE     0.00000    
 SEGMENT      9   ROW     6   COL     5   RATE     0.00000    
 SEGMENT      9   ROW     7   COL     4   RATE     0.00000    
 SEGMENT      9   ROW     7   COL     5   RATE     0.00000    
 SEGMENT      9   ROW     8   COL     4   RATE     0.00000    
 SEGMENT      9   ROW     8   COL     5   RATE     0.00000    
 
 

        GW IRRIGATION     PERIOD    8   STEP  15
 AG WELL      1   ROW     6   COL     4   RATE     0.00000    
 AG WELL      2   ROW     6   COL     5   RATE     0.00000    
 AG WELL      3   ROW     7   COL     4   RATE     0.00000    
 AG WELL      4   ROW     7   COL     5   RATE     0.00000    
 AG WELL      5   ROW     8   COL     4   RATE     0.00000    
 AG WELL      6   ROW     8   COL     5   RATE     0.00000    
 
1
  VOLUMETRIC BUDGET FOR ENTIRE MODEL AT END OF TIME STEP   15, STRESS PERIOD   8
  ------------------------------------------------------------------------------

     CUMULATIVE VOLUMES      L**3       RATES FOR THIS TIME STEP      L**3/T
     ------------------                 ------------------------

           IN:                                      IN:
           ---                                      ---
               AG WELLS  =           0.0000                 AG WELLS  =           0.0000
        DIVERSION SEGMEN =      535838.9375          DIVERSION SEGMEN =           0.0000
    TS         GW IRRIGA =           0.0000      TS         GW IRRIGA =           0.0000
    TION         SW IRRI =           0.0000      TION         SW IRRI =           0.0000
    GATION      SYSTEM L =           0.0000      GATION      SYSTEM L =           0.0000
    OSSES GW      SYSTEM =           0.0000      OSSES GW      SYSTEM =           0.0000

                TOTAL IN =      535838.9375                  TOTAL IN =           0.0000

          OUT:                                     OUT:
          ----                                     ----
               AG WELLS  =           0.0000                 AG WELLS  =           0.0000
        DIVERSION SEGMEN =           0.0000          DIVERSION SEGMEN =           0.0000
    TS         GW IRRIGA =           0.0000      TS         GW IRRIGA =           0.0000
    TION         SW IRRI =      535849.6250      TION         SW IRRI =           0.0000
    GATION      SYSTEM L =           0.0000      GATION      SYSTEM L =           0.0000
    OSSES GW      SYSTEM =           0.0000      OSSES GW      SYSTEM =           0.0000

               TOTAL OUT =      535849.6250                 TOTAL OUT =           0.0000

                IN - OUT =         -10.6875                  IN - OUT =           0.0000

     PERCENT DISCREPANCY =          -0.00         PERCENT DISCREPANCY =           0.00



1
  VOLUMETRIC BUDGET FOR ENTIRE MODEL AT END OF TIME STEP   15, STRESS PERIOD   8
  ------------------------------------------------------------------------------

     CUMULATIVE VOLUMES      L**3       RATES FOR THIS TIME STEP      L**3/T
     ------------------                 ------------------------

           IN:                                      IN:
           ---                                      ---
             STORAGE     =    11512251.0000               STORAGE     =           0.3968
       CONSTANT HEAD     =           0.0000         CONSTANT HEAD     =           0.0000
     HEAD DEP BOUNDS     =     4909119.5000       HEAD DEP BOUNDS     =           0.2858
      STREAM LEAKAGE     =   212162432.0000        STREAM LEAKAGE     =          12.7179
        UZF RECHARGE     =       73223.9531          UZF RECHARGE     =           0.0000
               GW ET     =           0.0000                 GW ET     =           0.0000
     SURFACE LEAKAGE     =           0.0000       SURFACE LEAKAGE     =           0.0000
           AG WELLS      =           0.0000             AG WELLS      =           0.0000

                TOTAL IN =   228657024.0000                  TOTAL IN =          13.4005

          OUT:                                     OUT:
          ----                                     ----
             STORAGE     =    41754824.0000               STORAGE     =           2.1440
       CONSTANT HEAD     =           0.0000         CONSTANT HEAD     =           0.0000
     HEAD DEP BOUNDS     =     5031122.0000       HEAD DEP BOUNDS     =           0.2960
      STREAM LEAKAGE     =   177544432.0000        STREAM LEAKAGE     =          10.1663
        UZF RECHARGE     =           0.0000          UZF RECHARGE     =           0.0000
               GW ET     =     4334715.0000                 GW ET     =           0.7948
     SURFACE LEAKAGE     =           0.0000       SURFACE LEAKAGE     =           0.0000
           AG WELLS      =           0.0000             AG WELLS      =           0.0000

               TOTAL OUT =   228665088.0000                 TOTAL OUT =          13.4010

                IN - OUT =       -8064.0000                  IN - OUT =      -4.9305E-04

     PERCENT DISCREPANCY =          -0.00         PERCENT DISCREPANCY =          -0.00






         TIME SUMMARY AT END OF TIME STEP   15 IN STRESS PERIOD    8
                    SECONDS     MINUTES      HOURS       DAYS        YEARS
                    -----------------------------------------------------------
   TIME STEP LENGTH  87667.      1461.1      24.352      1.0147     2.77799E-03
 STRESS PERIOD TIME 1.31500E+06  21917.      365.28      15.220     4.16698E-02
         TOTAL TIME 1.71814E+07 2.86357E+05  4772.6      198.86     0.54445    
1
 
 SOLVING FOR HEAD 
                                                   Max.-Head-Change                         Max.-Flux-Residual
  Residual-Control   Outer-Iter.   Inner-Iter.     Column Row Layer    Maximum-Head-Change  Column Row Layer    Maximum-Flux-Residual          L2-NORM 
          0                 1           2             1    1     1       0.4183794328E-02       1    1    1         0.2172067231E+00      0.4359736002E+00
          0                 2           2             1    1     1      -0.4069696633E-03       1    1    1        -0.2172070933E-01      0.4358982501E-01
          0                 3           1             1    1     1       0.2771311996E-04       1    1    1         0.1520449962E-02      0.3050597626E-02

    ------------------------------------------------
       NWT REQUIRED            3 OUTER ITERATIONS 
       AND A TOTAL OF          5 INNER ITERATIONS.
    ------------------------------------------------

 NO OUTPUT CONTROL FOR STRESS PERIOD    8   TIME STEP   16
 
 SOLVING FOR HEAD 
                                                   Max.-Head-Change                         Max.-Flux-Residual
  Residual-Control   Outer-Iter.   Inner-Iter.     Column Row Layer    Maximum-Head-Change  Column Row Layer    Maximum-Flux-Residual          L2-NORM 
          0                 1           2             1    1     1       0.4179097370E-02       1    1    1         0.2169623613E+00      0.4349324601E+00
          0                 2           2             1    1     1      -0.4065127747E-03       1    1    1        -0.2169627299E-01      0.4348702117E-01
          0                 3           1             1    1     1       0.2768200736E-04       1    1    1         0.1518739418E-02      0.3043492995E-02

    ------------------------------------------------
       NWT REQUIRED            3 OUTER ITERATIONS 
       AND A TOTAL OF          5 INNER ITERATIONS.
    ------------------------------------------------

 NO OUTPUT CONTROL FOR STRESS PERIOD    8   TIME STEP   17
 
 SOLVING FOR HEAD 
                                                   Max.-Head-Change                         Max.-Flux-Residual
  Residual-Control   Outer-Iter.   Inner-Iter.     Column Row Layer    Maximum-Head-Change  Column Row Layer    Maximum-Flux-Residual          L2-NORM 
          0                 1           2             1    1     1       0.4174416421E-02       1    1    1         0.2167188319E+00      0.4339577056E+00
          0                 2           2             1    1     1      -0.4060574441E-03       1    1    1        -0.2167191990E-01      0.4339047753E-01
          0                 3           1             1    1     1       0.2765100151E-04       1    1    1         0.1517034716E-02      0.3036835280E-02

    ------------------------------------------------
       NWT REQUIRED            3 OUTER ITERATIONS 
       AND A TOTAL OF          5 INNER ITERATIONS.
    ------------------------------------------------

 NO OUTPUT CONTROL FOR STRESS PERIOD    8   TIME STEP   18
 
 SOLVING FOR HEAD 
                                                   Max.-Head-Change                         Max.-Flux-Residual
  Residual-Control   Outer-Iter.   Inner-Iter.     Column Row Layer    Maximum-Head-Change  Column Row Layer    Maximum-Flux-Residual          L2-NORM 
          0                 1           2             1    1     1       0.4169751400E-02       1    1    1         0.2164761323E+00      0.4330410981E+00
          0                 2           2             1    1     1      -0.4056036616E-03       1    1    1        -0.2164764977E-01      0.4329977455E-01
          0                 3           1             1    1     1       0.2762009979E-04       1    1    1         0.1515335775E-02      0.3030521016E-02

    ------------------------------------------------
       NWT REQUIRED            3 OUTER ITERATIONS 
       AND A TOTAL OF          5 INNER ITERATIONS.
    ------------------------------------------------

 NO OUTPUT CONTROL FOR STRESS PERIOD    8   TIME STEP   19
 
 SOLVING FOR HEAD 
                                                   Max.-Head-Change                         Max.-Flux-Residual
  Residual-Control   Outer-Iter.   Inner-Iter.     Column Row Layer    Maximum-Head-Change  Column Row Layer    Maximum-Flux-Residual          L2-NORM 
          0                 1           2             1    1     1       0.4165102250E-02       1    1    1         0.2162342588E+00      0.4321746716E+00
          0                 2           2             1    1     1      -0.4051514240E-03       1    1    1        -0.2162346226E-01      0.4321375312E-01
          0                 3           1             1    1     1       0.2758930457E-04       1    1    1         0.1513642668E-02      0.3024544300E-02

    ------------------------------------------------
       NWT REQUIRED            3 OUTER ITERATIONS 
       AND A TOTAL OF          5 INNER ITERATIONS.
    ------------------------------------------------

 NO OUTPUT CONTROL FOR STRESS PERIOD    8   TIME STEP   20
 
 SOLVING FOR HEAD 
                                                   Max.-Head-Change                         Max.-Flux-Residual
  Residual-Control   Outer-Iter.   Inner-Iter.     Column Row Layer    Maximum-Head-Change  Column Row Layer    Maximum-Flux-Residual          L2-NORM 
          0                 1           2             1    1     1       0.4160468909E-02       1    1    1         0.2159932081E+00      0.4313557483E+00
          0                 2           2             1    1     1      -0.4047007238E-03       1    1    1        -0.2159935703E-01      0.4313248111E-01
          0                 3           1             1    1     1       0.2755861349E-04       1    1    1         0.1511955294E-02      0.3019020083E-02

    ------------------------------------------------
       NWT REQUIRED            3 OUTER ITERATIONS 
       AND A TOTAL OF          5 INNER ITERATIONS.
    ------------------------------------------------

 NO OUTPUT CONTROL FOR STRESS PERIOD    8   TIME STEP   21
 
 SOLVING FOR HEAD 
                                                   Max.-Head-Change                         Max.-Flux-Residual
  Residual-Control   Outer-Iter.   Inner-Iter.     Column Row Layer    Maximum-Head-Change  Column Row Layer    Maximum-Flux-Residual          L2-NORM 
          0                 1           2             1    1     1       0.4155851318E-02       1    1    1         0.2157529770E+00      0.4305808311E+00
          0                 2           2             1    1     1      -0.4042515557E-03       1    1    1        -0.2157533377E-01      0.4305556029E-01
          0                 3           1             1    1     1       0.2752802678E-04       1    1    1         0.1510273671E-02      0.3013751354E-02

    ------------------------------------------------
       NWT REQUIRED            3 OUTER ITERATIONS 
       AND A TOTAL OF          5 INNER ITERATIONS.
    ------------------------------------------------

 NO OUTPUT CONTROL FOR STRESS PERIOD    8   TIME STEP   22
 
 SOLVING FOR HEAD 
                                                   Max.-Head-Change                         Max.-Flux-Residual
  Residual-Control   Outer-Iter.   Inner-Iter.     Column Row Layer    Maximum-Head-Change  Column Row Layer    Maximum-Flux-Residual          L2-NORM 
          0                 1           2             1    1     1       0.4151249432E-02       1    1    1         0.2155135626E+00      0.4298368093E+00
          0                 2           2             1    1     1      -0.4038039151E-03       1    1    1        -0.2155139216E-01      0.4298149889E-01
          0                 3           1             1    1     1       0.2749754421E-04       1    1    1         0.1508597761E-02      0.3008519087E-02

    ------------------------------------------------
       NWT REQUIRED            3 OUTER ITERATIONS 
       AND A TOTAL OF          5 INNER ITERATIONS.
    ------------------------------------------------

 NO OUTPUT CONTROL FOR STRESS PERIOD    8   TIME STEP   23
 
 SOLVING FOR HEAD 
                                                   Max.-Head-Change                         Max.-Flux-Residual
  Residual-Control   Outer-Iter.   Inner-Iter.     Column Row Layer    Maximum-Head-Change  Column Row Layer    Maximum-Flux-Residual          L2-NORM 
          0                 1           2             1    1     1       0.4146663202E-02       1    1    1         0.2152749625E+00      0.4291174263E+00
          0                 2           2             1    1     1      -0.4033577981E-03       1    1    1        -0.2152753202E-01      0.4290990498E-01
          0                 3           1             1    1     1       0.2746716554E-04       1    1    1         0.1506927562E-02      0.3003508577E-02

    ------------------------------------------------
       NWT REQUIRED            3 OUTER ITERATIONS 
       AND A TOTAL OF          5 INNER ITERATIONS.
    ------------------------------------------------

 NO OUTPUT CONTROL FOR STRESS PERIOD    8   TIME STEP   24
 
 SOLVING FOR HEAD 
                                                   Max.-Head-Change                         Max.-Flux-Residual
  Residual-Control   Outer-Iter.   Inner-Iter.     Column Row Layer    Maximum-Head-Change  Column Row Layer    Maximum-Flux-Residual          L2-NORM 
          0                 1           2             1    1     1       0.4142092542E-02       1    1    1         0.2150371741E+00      0.4284323958E+00
          0                 2           2             1    1     1      -0.4029131952E-03       1    1    1        -0.2150375303E-01      0.4284173795E-01
          0                 3           1             1    1     1       0.2743688935E-04       1    1    1         0.1505263018E-02      0.2998799207E-02

    ------------------------------------------------
       NWT REQUIRED            3 OUTER ITERATIONS 
       AND A TOTAL OF          5 INNER ITERATIONS.
    ------------------------------------------------

 NO OUTPUT CONTROL FOR STRESS PERIOD    8   TIME STEP   25
 
 SOLVING FOR HEAD 
                                                   Max.-Head-Change                         Max.-Flux-Residual
  Residual-Control   Outer-Iter.   Inner-Iter.     Column Row Layer    Maximum-Head-Change  Column Row Layer    Maximum-Flux-Residual          L2-NORM 
          0                 1           2             1    1     1       0.4137537411E-02       1    1    1         0.2148001930E+00      0.4277638498E+00
          0                 2           2             1    1     1      -0.4024701026E-03       1    1    1        -0.2148005476E-01      0.4277513223E-01
          0                 3           1             1    1     1       0.2740671658E-04       1    1    1         0.1503604147E-02      0.2994165931E-02

    ------------------------------------------------
       NWT REQUIRED            3 OUTER ITERATIONS 
       AND A TOTAL OF          5 INNER ITERATIONS.
    ------------------------------------------------

 NO OUTPUT CONTROL FOR STRESS PERIOD    8   TIME STEP   26
 
 SOLVING FOR HEAD 
                                                   Max.-Head-Change                         Max.-Flux-Residual
  Residual-Control   Outer-Iter.   Inner-Iter.     Column Row Layer    Maximum-Head-Change  Column Row Layer    Maximum-Flux-Residual          L2-NORM 
          0                 1           2             1    1     1       0.4132975576E-02       1    1    1         0.2145628651E+00      0.4271161612E+00
          0                 2           2             1    1     1      -0.4020263580E-03       1    1    1        -0.2145632179E-01      0.4271052853E-01
          0                 3           1             1    1     1       0.2737649932E-04       1    1    1         0.1501942847E-02      0.2989639892E-02

    ------------------------------------------------
       NWT REQUIRED            3 OUTER ITERATIONS 
       AND A TOTAL OF          5 INNER ITERATIONS.
    ------------------------------------------------

 NO OUTPUT CONTROL FOR STRESS PERIOD    8   TIME STEP   27
 
 SOLVING FOR HEAD 
                                                   Max.-Head-Change                         Max.-Flux-Residual
  Residual-Control   Outer-Iter.   Inner-Iter.     Column Row Layer    Maximum-Head-Change  Column Row Layer    Maximum-Flux-Residual          L2-NORM 
          0                 1           2             1    1     1       0.4128451354E-02       1    1    1         0.2143274936E+00      0.4264951940E+00
          0                 2           2             1    1     1      -0.4015862722E-03       1    1    1        -0.2143278449E-01      0.4264864943E-01
          0                 3           1             1    1     1       0.2734653105E-04       1    1    1         0.1500295223E-02      0.2985319329E-02

    ------------------------------------------------
       NWT REQUIRED            3 OUTER ITERATIONS 
       AND A TOTAL OF          5 INNER ITERATIONS.
    ------------------------------------------------

 NO OUTPUT CONTROL FOR STRESS PERIOD    8   TIME STEP   28
 
 SOLVING FOR HEAD 
                                                   Max.-Head-Change                         Max.-Flux-Residual
  Residual-Control   Outer-Iter.   Inner-Iter.     Column Row Layer    Maximum-Head-Change  Column Row Layer    Maximum-Flux-Residual          L2-NORM 
          0                 1           2             1    1     1       0.4123942511E-02       1    1    1         0.2140929203E+00      0.4258823413E+00
          0                 2           2             1    1     1      -0.4011476824E-03       1    1    1        -0.2140932701E-01      0.4258746714E-01
          0                 3           1             1    1     1       0.2731666477E-04       1    1    1         0.1498653204E-02      0.2981086613E-02

    ------------------------------------------------
       NWT REQUIRED            3 OUTER ITERATIONS 
       AND A TOTAL OF          5 INNER ITERATIONS.
    ------------------------------------------------

 NO OUTPUT CONTROL FOR STRESS PERIOD    8   TIME STEP   29
 
 SOLVING FOR HEAD 
                                                   Max.-Head-Change                         Max.-Flux-Residual
  Residual-Control   Outer-Iter.   Inner-Iter.     Column Row Layer    Maximum-Head-Change  Column Row Layer    Maximum-Flux-Residual          L2-NORM 
          0                 1           2             1    1     1       0.4119448946E-02       1    1    1         0.2138591443E+00      0.4252853089E+00
          0                 2           2             1    1     1      -0.4007105789E-03       1    1    1        -0.2138594927E-01      0.4252790917E-01
          0                 3           1             1    1     1       0.2728689979E-04       1    1    1         0.1497016768E-02      0.2976916417E-02

    ------------------------------------------------
       NWT REQUIRED            3 OUTER ITERATIONS 
       AND A TOTAL OF          5 INNER ITERATIONS.
    ------------------------------------------------

 NO OUTPUT CONTROL FOR STRESS PERIOD    8   TIME STEP   30



 STREAM LISTING     PERIOD      8   STEP       30

 LAYER ROW COL. STREAM  RCH.  FLOW INTO     FLOW TO   FLOW OUT OF   OVRLND.     DIRECT     STREAM       STREAM     STREAM     STREAM   STREAMBED  STREAMBED
                SEG.NO.  NO.  STRM. RCH.    AQUIFER    STRM. RCH.    RUNOFF     PRECIP       ET          HEAD       DEPTH      WIDTH   CONDCTNC.   GRADIENT

   1    1    1     1     1    5.6250E+01  3.5874E-01   5.5891E+01  0.000E+00  0.000E+00  0.000E+00  1.09453E+03  1.479E+00  1.780E+01  8.010E-02  1.493E+00
   1    2    2     1     2    5.5891E+01  5.5550E-01   5.5335E+01  0.000E+00  0.000E+00  0.000E+00  1.08953E+03  1.473E+00  1.774E+01  1.242E-01  1.491E+00
   1    3    3     1     3    5.5335E+01  4.7368E-01   5.4862E+01  0.000E+00  0.000E+00  0.000E+00  1.08389E+03  1.467E+00  1.767E+01  1.060E-01  1.489E+00
   1    3    4     1     4    5.4862E+01  4.3613E-01   5.4426E+01  0.000E+00  0.000E+00  0.000E+00  1.07887E+03  1.461E+00  1.762E+01  9.777E-02  1.487E+00
   1    4    5     2     1    5.2426E+01  3.8056E-01   5.2045E+01  0.000E+00  0.000E+00  0.000E+00  1.07381E+03  1.879E+00  1.200E+01  7.800E-02  1.626E+00
   1    5    6     2     2    5.2045E+01  2.9230E-01   5.1753E+01  0.000E+00  0.000E+00  0.000E+00  1.06838E+03  1.872E+00  1.200E+01  6.000E-02  1.624E+00
   1    6    6     2     3    5.1753E+01  2.9192E-01   5.1461E+01  0.000E+00  0.000E+00  0.000E+00  1.06366E+03  1.865E+00  1.200E+01  6.000E-02  1.622E+00
   1    7    6     2     4    5.1461E+01  2.9154E-01   5.1169E+01  0.000E+00  0.000E+00  0.000E+00  1.05893E+03  1.859E+00  1.200E+01  6.000E-02  1.620E+00
   1    8    6     2     5    5.1169E+01  2.9116E-01   5.0878E+01  0.000E+00  0.000E+00  0.000E+00  1.05421E+03  1.853E+00  1.200E+01  6.000E-02  1.618E+00
   1    3    5     3     1    2.0000E+00  2.8252E-01   1.7175E+00  0.000E+00  0.000E+00  0.000E+00  1.07555E+03  1.909E+00  9.636E+00  7.227E-02  1.955E+00
   1    3    6     3     2    1.7175E+00  2.4905E-01   1.4684E+00  0.000E+00  0.000E+00  0.000E+00  1.07264E+03  1.727E+00  8.909E+00  6.682E-02  1.864E+00
   1    3    7     3     3    1.4684E+00  1.9718E-01   1.2712E+00  0.000E+00  0.000E+00  0.000E+00  1.06987E+03  1.555E+00  8.218E+00  5.547E-02  1.777E+00
   1    4    8     3     4    1.2712E+00  2.2567E-01   1.0456E+00  0.000E+00  0.000E+00  0.000E+00  1.06682E+03  1.364E+00  7.455E+00  6.709E-02  1.682E+00
   1    5    8     3     5    1.0456E+00  1.5790E-01   8.8768E-01  0.000E+00  0.000E+00  0.000E+00  1.06362E+03  1.164E+00  6.655E+00  4.991E-02  1.582E+00
   1    6    8     3     6    8.8768E-01  5.5980E-02   8.3170E-01  0.000E+00  0.000E+00  0.000E+00  1.06158E+03  1.036E+00  6.145E+00  1.844E-02  1.518E+00
   1    5   10     4     1    1.0000E+01  9.0919E-02   9.9091E+00  0.000E+00  0.000E+00  0.000E+00  1.07836E+03  6.368E-01  1.000E+01  2.500E-02  1.212E+00
   1    5    9     4     2    9.9091E+00  1.8158E-01   9.7275E+00  0.000E+00  0.000E+00  0.000E+00  1.07154E+03  6.315E-01  1.000E+01  5.000E-02  1.211E+00
   1    6    8     4     3    9.7275E+00  1.2689E-01   9.6006E+00  0.000E+00  0.000E+00  0.000E+00  1.06381E+03  6.256E-01  1.000E+01  3.500E-02  1.209E+00
   1    6    8     5     1    1.0432E+01  2.2686E-01   1.0205E+01  0.000E+00  0.000E+00  0.000E+00  1.05868E+03  6.790E-01  1.542E+01  6.166E-02  1.226E+00
   1    7    7     5     2    1.0205E+01  2.7894E-01   9.9265E+00  0.000E+00  0.000E+00  0.000E+00  1.05417E+03  6.732E-01  1.519E+01  7.594E-02  1.224E+00
   1    8    7     5     3    9.9265E+00  1.9221E-01   9.7343E+00  0.000E+00  0.000E+00  0.000E+00  1.04992E+03  6.676E-01  1.497E+01  5.241E-02  1.223E+00
   1    8    6     5     4    9.7343E+00  1.3577E-01   9.5985E+00  0.000E+00  0.000E+00  0.000E+00  1.04691E+03  6.637E-01  1.482E+01  3.706E-02  1.221E+00
   1    9    6     6     1    6.0477E+01  3.0428E-01   6.0172E+01  0.000E+00  0.000E+00  0.000E+00  1.04480E+03  2.071E+00  1.200E+01  6.000E-02  1.690E+00
   1   10    7     6     2    6.0172E+01  3.0391E-01   5.9868E+01  0.000E+00  0.000E+00  0.000E+00  1.04025E+03  2.065E+00  1.200E+01  6.000E-02  1.688E+00
   1   11    7     6     3    5.9868E+01  3.0353E-01   5.9565E+01  0.000E+00  0.000E+00  0.000E+00  1.03570E+03  2.059E+00  1.200E+01  6.000E-02  1.686E+00
   1   12    7     6     4    5.9565E+01  3.0315E-01   5.9262E+01  0.000E+00  0.000E+00  0.000E+00  1.03114E+03  2.053E+00  1.200E+01  6.000E-02  1.684E+00
   1   13    7     6     5    5.9262E+01  1.8478E-02   5.9243E+01  0.000E+00  0.000E+00  0.000E+00  1.02796E+03  2.049E+00  1.200E+01  2.400E-02  2.566E-01
   1   14    9     7     1    1.5000E+02  1.3357E+00   1.4866E+02  0.000E+00  0.000E+00  0.000E+00  1.03987E+03  2.288E+00  5.529E+01  5.593E-01  7.961E-01
   1   13    8     7     2    1.4866E+02  1.8134E+00   1.4685E+02  0.000E+00  0.000E+00  0.000E+00  1.03478E+03  2.279E+00  5.526E+01  6.148E-01  9.832E-01
   1   13    7     7     3    1.4685E+02  1.3971E+00   1.4545E+02  0.000E+00  0.000E+00  0.000E+00  1.02969E+03  2.271E+00  5.522E+01  5.585E-01  8.339E-01
   1   13    6     8     1    2.0470E+02  9.7843E-01   2.0372E+02  0.000E+00  0.000E+00  0.000E+00  1.02504E+03  3.162E+00  4.585E+01  4.673E-01  6.980E-01
   1   13    5     8     2    2.0372E+02  1.8134E-01   2.0354E+02  0.000E+00  0.000E+00  0.000E+00  1.01878E+03  3.159E+00  4.580E+01  4.668E-01  1.295E-01
   1   13    4     8     3    2.0354E+02 -2.2393E+00   2.0578E+02  0.000E+00  0.000E+00  0.000E+00  1.01254E+03  3.165E+00  4.589E+01  4.676E+00 -1.596E-01
   1   13    3     8     4    2.0578E+02 -3.3600E+00   2.0914E+02  0.000E+00  0.000E+00  0.000E+00  1.00631E+03  3.181E+00  4.613E+01  4.700E+00 -2.383E-01
   1   13    2     8     5    2.0914E+02 -2.5388E+00   2.1168E+02  0.000E+00  0.000E+00  0.000E+00  1.00007E+03  3.198E+00  4.637E+01  4.725E+00 -1.791E-01
   1   13    1     8     6    2.1168E+02 -1.9828E+00   2.1366E+02  0.000E+00  0.000E+00  0.000E+00  9.95086E+02  3.211E+00  4.656E+01  2.847E+00 -2.322E-01
   1    8    6     9     1    0.0000E+00  0.0000E+00   0.0000E+00  0.000E+00  0.000E+00  0.000E+00  1.07875E+03  0.000E+00  4.000E+00  0.000E+00  1.000E+00
   1    8    5     9     2    0.0000E+00  0.0000E+00   0.0000E+00  0.000E+00  0.000E+00  0.000E+00  1.07825E+03  0.000E+00  4.000E+00  0.000E+00  1.000E+00





UNSATURATED ZONE PACKAGE VOLUMETRIC BUDGET FOR  TIME STEP    30 STRESS PERIOD    8
  ------------------------------------------------------------------------------



     CUMULATIVE VOLUMES      L**3       RATES FOR THIS TIME STEP      L**3/T
     ------------------                 ------------------------

           IN:                                      IN:
           ---                                      ---
        INFILTRATION =    81751145.5273          INFILTRATION =           4.4075

          OUT:                                     OUT:
          ----                                     ----
              UZF ET =    62962809.8491                UZF ET =           4.4075
        UZF RECHARGE =       73224.0000          UZF RECHARGE =       0.0000E+00

            IN - OUT =    18715111.6782              IN - OUT =       0.0000E+00

          STORAGE:                                 STORAGE:
          --------                                 --------
      STORAGE CHANGE =    18715111.4112        STORAGE CHANGE =      -4.1498E-16

 PERCENT DISCREPANCY IS DIFFERENCE BETWEEN IN-OUT MINUS CHANGE IN STORAGE
 DIVIDED BY THE AVERAGE OF IN AND OUT TIMES 100

 PERCENT DISCREPANCY =           0.00     PERCENT DISCREPANCY =           0.00






1
  VOLUMETRIC BUDGET FOR ENTIRE MODEL AT END OF TIME STEP   30, STRESS PERIOD   8
  ------------------------------------------------------------------------------

     CUMULATIVE VOLUMES      L**3       RATES FOR THIS TIME STEP      L**3/T
     ------------------                 ------------------------

           IN:                                      IN:
           ---                                      ---
               AG WELLS  =           0.0000                 AG WELLS  =           0.0000
        DIVERSION SEGMEN =      535838.9375          DIVERSION SEGMEN =           0.0000
    TS         GW IRRIGA =           0.0000      TS         GW IRRIGA =           0.0000
    TION         SW IRRI =           0.0000      TION         SW IRRI =           0.0000
    GATION      SYSTEM L =           0.0000      GATION      SYSTEM L =           0.0000
    OSSES GW      SYSTEM =           0.0000      OSSES GW      SYSTEM =           0.0000

                TOTAL IN =      535838.9375                  TOTAL IN =           0.0000

          OUT:                                     OUT:
          ----                                     ----
               AG WELLS  =           0.0000                 AG WELLS  =           0.0000
        DIVERSION SEGMEN =           0.0000          DIVERSION SEGMEN =           0.0000
    TS         GW IRRIGA =           0.0000      TS         GW IRRIGA =           0.0000
    TION         SW IRRI =      535849.6250      TION         SW IRRI =           0.0000
    GATION      SYSTEM L =           0.0000      GATION      SYSTEM L =           0.0000
    OSSES GW      SYSTEM =           0.0000      OSSES GW      SYSTEM =           0.0000

               TOTAL OUT =      535849.6250                 TOTAL OUT =           0.0000

                IN - OUT =         -10.6875                  IN - OUT =           0.0000

     PERCENT DISCREPANCY =          -0.00         PERCENT DISCREPANCY =           0.00



1
  VOLUMETRIC BUDGET FOR ENTIRE MODEL AT END OF TIME STEP   30, STRESS PERIOD   8
  ------------------------------------------------------------------------------

     CUMULATIVE VOLUMES      L**3       RATES FOR THIS TIME STEP      L**3/T
     ------------------                 ------------------------

           IN:                                      IN:
           ---                                      ---
             STORAGE     =    11973694.0000               STORAGE     =           0.3243
       CONSTANT HEAD     =           0.0000         CONSTANT HEAD     =           0.0000
     HEAD DEP BOUNDS     =     5284887.5000       HEAD DEP BOUNDS     =           0.2858
      STREAM LEAKAGE     =   228882704.0000        STREAM LEAKAGE     =          12.7124
        UZF RECHARGE     =       73223.9531          UZF RECHARGE     =           0.0000
               GW ET     =           0.0000                 GW ET     =           0.0000
     SURFACE LEAKAGE     =           0.0000       SURFACE LEAKAGE     =           0.0000
           AG WELLS      =           0.0000             AG WELLS      =           0.0000

                TOTAL IN =   246214496.0000                  TOTAL IN =          13.3225

          OUT:                                     OUT:
          ----                                     ----
             STORAGE     =    44553688.0000               STORAGE     =           2.1171
       CONSTANT HEAD     =           0.0000         CONSTANT HEAD     =           0.0000
     HEAD DEP BOUNDS     =     5420143.0000       HEAD DEP BOUNDS     =           0.2957
      STREAM LEAKAGE     =   190875632.0000        STREAM LEAKAGE     =          10.1209
        UZF RECHARGE     =           0.0000          UZF RECHARGE     =           0.0000
               GW ET     =     5373717.0000                 GW ET     =           0.7892
     SURFACE LEAKAGE     =           0.0000       SURFACE LEAKAGE     =           0.0000
           AG WELLS      =           0.0000             AG WELLS      =           0.0000

               TOTAL OUT =   246223184.0000                 TOTAL OUT =          13.3230

                IN - OUT =       -8688.0000                  IN - OUT =      -5.0926E-04

     PERCENT DISCREPANCY =          -0.00         PERCENT DISCREPANCY =          -0.00






         TIME SUMMARY AT END OF TIME STEP   30 IN STRESS PERIOD    8
                    SECONDS     MINUTES      HOURS       DAYS        YEARS
                    -----------------------------------------------------------
   TIME STEP LENGTH  87667.      1461.1      24.352      1.0147     2.77799E-03
 STRESS PERIOD TIME 2.63000E+06  43833.      730.56      30.440     8.33397E-02
         TOTAL TIME 1.84964E+07 3.08274E+05  5137.9      214.08     0.58612    
1
1
                            STRESS PERIOD NO.    9, LENGTH =   2630000.    
                            -----------------------------------------------

                              NUMBER OF TIME STEPS =    30

                               MULTIPLIER FOR DELT =     1.000

                            INITIAL TIME STEP SIZE =   87666.66    

 REUSING NON-PARAMETER GHB CELLS FROM LAST STRESS PERIOD

      2 GHB CELLS

 REUSING STREAM SEGMENT DATA FROM LAST STRESS PERIOD



            AREAL INFILTRATION RATE
 READING ON UNIT   19 WITH FORMAT: (10F4.0)            

            1           2           3           4           5           6           7           8           9          10
 ........................................................................................................................
   1   1.2000E-09   0.000       0.000       0.000       0.000       0.000       0.000       0.000       0.000       0.000    
   2   2.1000E-09  2.0000E-09  8.0000E-10  8.5000E-09   0.000       0.000       0.000       0.000       0.000       0.000    
   3   5.0000E-10  1.1000E-09  8.8000E-09  5.5000E-09   0.000       0.000       0.000       0.000       0.000       0.000    
   4   8.5000E-09  1.1000E-09  1.1000E-09  1.1000E-09  2.0000E-09   0.000       0.000       0.000       0.000       0.000    
   5   8.5000E-09  1.1000E-09  1.1000E-09  1.1000E-09  1.1000E-09   0.000       0.000       0.000       0.000       0.000    
   6   8.5000E-09  5.2000E-09  2.1000E-09  1.1000E-09  1.5000E-09   0.000       0.000       0.000       0.000       0.000    
   7   8.5000E-09  5.2000E-09  2.1000E-09  1.2000E-09  2.0000E-09   0.000       0.000       0.000       0.000       0.000    
   8   5.0000E-10  5.2000E-09  2.1000E-09  1.2000E-09  5.0000E-09   0.000       0.000       0.000       0.000       0.000    
   9   5.0000E-10  5.2000E-09  2.1000E-09  1.2000E-09  5.0000E-09   0.000       0.000       0.000       0.000       0.000    
  10   5.0000E-10  5.2000E-09  2.1000E-09  1.2000E-09  5.8000E-09   0.000       0.000       0.000       0.000       0.000    
  11   1.0000E-10  1.1000E-09  1.1000E-09  1.2000E-09  5.0000E-09   0.000       0.000       0.000       0.000       0.000    
  12   1.1000E-09  1.1000E-09  1.1000E-09  1.1000E-09  2.0000E-09   0.000       0.000       0.000       0.000       0.000    
  13   1.1000E-09  2.2000E-09  2.2000E-09  2.1000E-09  1.0000E-09   0.000       0.000       0.000       0.000       0.000    
  14   2.0000E-10  5.5000E-09  5.5000E-09  5.2000E-09  1.0000E-09   0.000       0.000       0.000       0.000       0.000    
  15    0.000      8.8000E-09  8.8000E-09   0.000       0.000       0.000       0.000       0.000       0.000       0.000    

                  ET RATE =  3.250000E-07

 USING ET EXTINCTION DEPTH FROM PREVIOUS STRESS PERIOD. CURRENT PERIOD IS:       9

 USING EXTINCTION WATER CONTENT FROM PREVIOUS STRESS PERIOD. CURRENT PERIOD IS:       9

 USING AIR ENTRY PRESSURE FROM PREVIOUS STRESS PERIOD. CURRENT PERIOD IS:       9

 USING ROOT PRESSURE HEAD FROM PREVIOUS STRESS PERIOD. CURRENT PERIOD IS:       9

 USING ROOT ACTIVITY FROM PREVIOUS STRESS PERIOD. CURRENT PERIOD IS:       9

 PROCESSING AG STRESS PERIOD DATA

 READING AG STRESS PERIOD DATA

 READING IRRIGATION SEGMENT

 READING IRRIGATION WELL

 READING SUPPLEMENTAL WELL

 END PROCESSING AG STRESS PERIOD DATA OPTIONS
 
 SOLVING FOR HEAD 
                                                   Max.-Head-Change                         Max.-Flux-Residual
  Residual-Control   Outer-Iter.   Inner-Iter.     Column Row Layer    Maximum-Head-Change  Column Row Layer    Maximum-Flux-Residual          L2-NORM 
          0                 1           2             2   13     1      -0.3784179245E-02       2   13    1        -0.2144409281E+00      0.4782362513E+00
          0                 2           2             2   13     1       0.3583978381E-03       2   13    1         0.2087956277E-01      0.4734651707E-01
          0                 3           1             2   13     1      -0.2351149901E-04       2   13    1        -0.1408089350E-02      0.3270021395E-02

    ------------------------------------------------
       NWT REQUIRED            3 OUTER ITERATIONS 
       AND A TOTAL OF          5 INNER ITERATIONS.
    ------------------------------------------------

 NO OUTPUT CONTROL FOR STRESS PERIOD    9   TIME STEP    1
 
 SOLVING FOR HEAD 
                                                   Max.-Head-Change                         Max.-Flux-Residual
  Residual-Control   Outer-Iter.   Inner-Iter.     Column Row Layer    Maximum-Head-Change  Column Row Layer    Maximum-Flux-Residual          L2-NORM 
          0                 1           2             2   13     1      -0.3625802963E-02       2   13    1        -0.2055413639E+00      0.4575441131E+00
          0                 2           2             2   13     1       0.3444055187E-03       2   13    1         0.2007188842E-01      0.4535663854E-01
          0                 3           1             2   13     1      -0.2266464240E-04       2   13    1        -0.1357779477E-02      0.3140316089E-02

    ------------------------------------------------
       NWT REQUIRED            3 OUTER ITERATIONS 
       AND A TOTAL OF          5 INNER ITERATIONS.
    ------------------------------------------------

 NO OUTPUT CONTROL FOR STRESS PERIOD    9   TIME STEP    2
 
 SOLVING FOR HEAD 
                                                   Max.-Head-Change                         Max.-Flux-Residual
  Residual-Control   Outer-Iter.   Inner-Iter.     Column Row Layer    Maximum-Head-Change  Column Row Layer    Maximum-Flux-Residual          L2-NORM 
          0                 1           2             1    1     1       0.3417947618E-02       2   13    1        -0.1885719201E+00      0.4360065479E+00
          0                 2           2             1    1     1      -0.3324734291E-03       2   13    1         0.1845365727E-01      0.4329091800E-01
          0                 3           1             1    1     1       0.2264020470E-04       1    1    1         0.1241948567E-02      0.2995794395E-02

    ------------------------------------------------
       NWT REQUIRED            3 OUTER ITERATIONS 
       AND A TOTAL OF          5 INNER ITERATIONS.
    ------------------------------------------------

 NO OUTPUT CONTROL FOR STRESS PERIOD    9   TIME STEP    3
 
 SOLVING FOR HEAD 
                                                   Max.-Head-Change                         Max.-Flux-Residual
  Residual-Control   Outer-Iter.   Inner-Iter.     Column Row Layer    Maximum-Head-Change  Column Row Layer    Maximum-Flux-Residual          L2-NORM 
          0                 1           2             1    1     1       0.3414601873E-02       1    1    1         0.1772469314E+00      0.4207144752E+00
          0                 2           2             1    1     1      -0.3321479778E-03       1    1    1        -0.1772471478E-01      0.4183634158E-01
          0                 3           1             1    1     1       0.2261804285E-04       1    1    1         0.1240730365E-02      0.2906202513E-02

    ------------------------------------------------
       NWT REQUIRED            3 OUTER ITERATIONS 
       AND A TOTAL OF          5 INNER ITERATIONS.
    ------------------------------------------------

 NO OUTPUT CONTROL FOR STRESS PERIOD    9   TIME STEP    4
 
 SOLVING FOR HEAD 
                                                   Max.-Head-Change                         Max.-Flux-Residual
  Residual-Control   Outer-Iter.   Inner-Iter.     Column Row Layer    Maximum-Head-Change  Column Row Layer    Maximum-Flux-Residual          L2-NORM 
          0                 1           2             1    1     1       0.3411266761E-02       1    1    1         0.1770734598E+00      0.4092746199E+00
          0                 2           2             1    1     1      -0.3318235608E-03       1    1    1        -0.1770736754E-01      0.4074243337E-01
          0                 3           1             1    1     1       0.2259595106E-04       1    1    1         0.1239516051E-02      0.2834759692E-02

    ------------------------------------------------
       NWT REQUIRED            3 OUTER ITERATIONS 
       AND A TOTAL OF          5 INNER ITERATIONS.
    ------------------------------------------------

 NO OUTPUT CONTROL FOR STRESS PERIOD    9   TIME STEP    5
 
 SOLVING FOR HEAD 
                                                   Max.-Head-Change                         Max.-Flux-Residual
  Residual-Control   Outer-Iter.   Inner-Iter.     Column Row Layer    Maximum-Head-Change  Column Row Layer    Maximum-Flux-Residual          L2-NORM 
          0                 1           2             1    1     1       0.3407964492E-02       1    1    1         0.1769016926E+00      0.4003209291E+00
          0                 2           2             1    1     1      -0.3315023389E-03       1    1    1        -0.1769019073E-01      0.3988393226E-01
          0                 3           1             1    1     1       0.2257407724E-04       1    1    1         0.1238313682E-02      0.2778021107E-02

    ------------------------------------------------
       NWT REQUIRED            3 OUTER ITERATIONS 
       AND A TOTAL OF          5 INNER ITERATIONS.
    ------------------------------------------------

 NO OUTPUT CONTROL FOR STRESS PERIOD    9   TIME STEP    6
 
 SOLVING FOR HEAD 
                                                   Max.-Head-Change                         Max.-Flux-Residual
  Residual-Control   Outer-Iter.   Inner-Iter.     Column Row Layer    Maximum-Head-Change  Column Row Layer    Maximum-Flux-Residual          L2-NORM 
          0                 1           2             1    1     1       0.3404650592E-02       1    1    1         0.1767293221E+00      0.3930363295E+00
          0                 2           2             1    1     1      -0.3311799857E-03       1    1    1        -0.1767295361E-01      0.3918315270E-01
          0                 3           1             1    1     1       0.2255212603E-04       1    1    1         0.1237107080E-02      0.2731535320E-02

    ------------------------------------------------
       NWT REQUIRED            3 OUTER ITERATIONS 
       AND A TOTAL OF          5 INNER ITERATIONS.
    ------------------------------------------------

 NO OUTPUT CONTROL FOR STRESS PERIOD    9   TIME STEP    7
 
 SOLVING FOR HEAD 
                                                   Max.-Head-Change                         Max.-Flux-Residual
  Residual-Control   Outer-Iter.   Inner-Iter.     Column Row Layer    Maximum-Head-Change  Column Row Layer    Maximum-Flux-Residual          L2-NORM 
          0                 1           2             1    1     1       0.3401369459E-02       1    1    1         0.1765586549E+00      0.3869530180E+00
          0                 2           2             1    1     1      -0.3308608196E-03       1    1    1        -0.1765588680E-01      0.3859558569E-01
          0                 3           1             1    1     1       0.2253039185E-04       1    1    1         0.1235912401E-02      0.2691959823E-02

    ------------------------------------------------
       NWT REQUIRED            3 OUTER ITERATIONS 
       AND A TOTAL OF          5 INNER ITERATIONS.
    ------------------------------------------------

 NO OUTPUT CONTROL FOR STRESS PERIOD    9   TIME STEP    8
 
 SOLVING FOR HEAD 
                                                   Max.-Head-Change                         Max.-Flux-Residual
  Residual-Control   Outer-Iter.   Inner-Iter.     Column Row Layer    Maximum-Head-Change  Column Row Layer    Maximum-Flux-Residual          L2-NORM 
          0                 1           2             1    1     1       0.3398076603E-02       1    1    1         0.1763873801E+00      0.3817620097E+00
          0                 2           2             1    1     1      -0.3305405132E-03       1    1    1        -0.1763875923E-01      0.3809353578E-01
          0                 3           1             1    1     1       0.2250858051E-04       1    1    1         0.1234713478E-02      0.2658568599E-02

    ------------------------------------------------
       NWT REQUIRED            3 OUTER ITERATIONS 
       AND A TOTAL OF          5 INNER ITERATIONS.
    ------------------------------------------------

 NO OUTPUT CONTROL FOR STRESS PERIOD    9   TIME STEP    9
 
 SOLVING FOR HEAD 
                                                   Max.-Head-Change                         Max.-Flux-Residual
  Residual-Control   Outer-Iter.   Inner-Iter.     Column Row Layer    Maximum-Head-Change  Column Row Layer    Maximum-Flux-Residual          L2-NORM 
          0                 1           2             1    1     1       0.3394794259E-02       1    1    1         0.1762166507E+00      0.3772785640E+00
          0                 2           2             1    1     1      -0.3302212294E-03       1    1    1        -0.1762168621E-01      0.3765849508E-01
          0                 3           1             1    1     1       0.2248683829E-04       1    1    1         0.1233518369E-02      0.2629350241E-02

    ------------------------------------------------
       NWT REQUIRED            3 OUTER ITERATIONS 
       AND A TOTAL OF          5 INNER ITERATIONS.
    ------------------------------------------------

 NO OUTPUT CONTROL FOR STRESS PERIOD    9   TIME STEP   10
 
 SOLVING FOR HEAD 
                                                   Max.-Head-Change                         Max.-Flux-Residual
  Residual-Control   Outer-Iter.   Inner-Iter.     Column Row Layer    Maximum-Head-Change  Column Row Layer    Maximum-Flux-Residual          L2-NORM 
          0                 1           2             1    1     1       0.3391544609E-02       1    1    1         0.1760476201E+00      0.3733766334E+00
          0                 2           2             1    1     1      -0.3299051260E-03       1    1    1        -0.1760478307E-01      0.3727900485E-01
          0                 3           1             1    1     1       0.2246531333E-04       1    1    1         0.1232335159E-02      0.2603951481E-02

    ------------------------------------------------
       NWT REQUIRED            3 OUTER ITERATIONS 
       AND A TOTAL OF          5 INNER ITERATIONS.
    ------------------------------------------------

 NO OUTPUT CONTROL FOR STRESS PERIOD    9   TIME STEP   11
 
 SOLVING FOR HEAD 
                                                   Max.-Head-Change                         Max.-Flux-Residual
  Residual-Control   Outer-Iter.   Inner-Iter.     Column Row Layer    Maximum-Head-Change  Column Row Layer    Maximum-Flux-Residual          L2-NORM 
          0                 1           2             1    1     1       0.3388283141E-02       1    1    1         0.1758779773E+00      0.3699540475E+00
          0                 2           2             1    1     1      -0.3295878727E-03       1    1    1        -0.1758781870E-01      0.3694545875E-01
          0                 3           1             1    1     1       0.2244370908E-04       1    1    1         0.1231147638E-02      0.2581385639E-02

    ------------------------------------------------
       NWT REQUIRED            3 OUTER ITERATIONS 
       AND A TOTAL OF          5 INNER ITERATIONS.
    ------------------------------------------------

 NO OUTPUT CONTROL FOR STRESS PERIOD    9   TIME STEP   12
 
 SOLVING FOR HEAD 
                                                   Max.-Head-Change                         Max.-Flux-Residual
  Residual-Control   Outer-Iter.   Inner-Iter.     Column Row Layer    Maximum-Head-Change  Column Row Layer    Maximum-Flux-Residual          L2-NORM 
          0                 1           2             1    1     1       0.3385032090E-02       1    1    1         0.1757088753E+00      0.3669295285E+00
          0                 2           2             1    1     1      -0.3292716326E-03       1    1    1        -0.1757090842E-01      0.3664869767E-01
          0                 3           1             1    1     1       0.2242217418E-04       1    1    1         0.1229963915E-02      0.2561358063E-02

    ------------------------------------------------
       NWT REQUIRED            3 OUTER ITERATIONS 
       AND A TOTAL OF          5 INNER ITERATIONS.
    ------------------------------------------------

 NO OUTPUT CONTROL FOR STRESS PERIOD    9   TIME STEP   13
 
 SOLVING FOR HEAD 
                                                   Max.-Head-Change                         Max.-Flux-Residual
  Residual-Control   Outer-Iter.   Inner-Iter.     Column Row Layer    Maximum-Head-Change  Column Row Layer    Maximum-Flux-Residual          L2-NORM 
          0                 1           2             1    1     1       0.3381791424E-02       1    1    1         0.1755403135E+00      0.3642571445E+00
          0                 2           2             1    1     1      -0.3289564032E-03       1    1    1        -0.1755405217E-01      0.3638908992E-01
          0                 3           1             1    1     1       0.2240070815E-04       1    1    1         0.1228783982E-02      0.2543312557E-02

    ------------------------------------------------
       NWT REQUIRED            3 OUTER ITERATIONS 
       AND A TOTAL OF          5 INNER ITERATIONS.
    ------------------------------------------------

 NO OUTPUT CONTROL FOR STRESS PERIOD    9   TIME STEP   14
 
 SOLVING FOR HEAD 
                                                   Max.-Head-Change                         Max.-Flux-Residual
  Residual-Control   Outer-Iter.   Inner-Iter.     Column Row Layer    Maximum-Head-Change  Column Row Layer    Maximum-Flux-Residual          L2-NORM 
          0                 1           2             1    1     1       0.3378561086E-02       1    1    1         0.1753722901E+00      0.3618823470E+00
          0                 2           2             1    1     1      -0.3286421783E-03       1    1    1        -0.1753724975E-01      0.3615678067E-01
          0                 3           1             1    1     1       0.2237931123E-04       1    1    1         0.1227607829E-02      0.2528270863E-02

    ------------------------------------------------
       NWT REQUIRED            3 OUTER ITERATIONS 
       AND A TOTAL OF          5 INNER ITERATIONS.
    ------------------------------------------------

 NO OUTPUT CONTROL FOR STRESS PERIOD    9   TIME STEP   15
 
 SOLVING FOR HEAD 
                                                   Max.-Head-Change                         Max.-Flux-Residual
  Residual-Control   Outer-Iter.   Inner-Iter.     Column Row Layer    Maximum-Head-Change  Column Row Layer    Maximum-Flux-Residual          L2-NORM 
          0                 1           2             1    1     1       0.3375363290E-02       1    1    1         0.1752059564E+00      0.3597606030E+00
          0                 2           2             1    1     1      -0.3283311189E-03       1    1    1        -0.1752061630E-01      0.3594907798E-01
          0                 3           1             1    1     1       0.2235812921E-04       1    1    1         0.1226443495E-02      0.2513914335E-02

    ------------------------------------------------
       NWT REQUIRED            3 OUTER ITERATIONS 
       AND A TOTAL OF          5 INNER ITERATIONS.
    ------------------------------------------------

 NO OUTPUT CONTROL FOR STRESS PERIOD    9   TIME STEP   16
 
 SOLVING FOR HEAD 
                                                   Max.-Head-Change                         Max.-Flux-Residual
  Residual-Control   Outer-Iter.   Inner-Iter.     Column Row Layer    Maximum-Head-Change  Column Row Layer    Maximum-Flux-Residual          L2-NORM 
          0                 1           2             1    1     1       0.3372153524E-02       1    1    1         0.1750390017E+00      0.3578626534E+00
          0                 2           2             1    1     1      -0.3280188945E-03       1    1    1        -0.1750392074E-01      0.3576289240E-01
          0                 3           1             1    1     1       0.2233686790E-04       1    1    1         0.1225274791E-02      0.2501147355E-02

    ------------------------------------------------
       NWT REQUIRED            3 OUTER ITERATIONS 
       AND A TOTAL OF          5 INNER ITERATIONS.
    ------------------------------------------------

 NO OUTPUT CONTROL FOR STRESS PERIOD    9   TIME STEP   17
 
 SOLVING FOR HEAD 
                                                   Max.-Head-Change                         Max.-Flux-Residual
  Residual-Control   Outer-Iter.   Inner-Iter.     Column Row Layer    Maximum-Head-Change  Column Row Layer    Maximum-Flux-Residual          L2-NORM 
          0                 1           2             1    1     1       0.3368954013E-02       1    1    1         0.1748725804E+00      0.3561557231E+00
          0                 2           2             1    1     1      -0.3277076682E-03       1    1    1        -0.1748727853E-01      0.3559519432E-01
          0                 3           1             1    1     1       0.2231567428E-04       1    1    1         0.1224109838E-02      0.2489463234E-02

    ------------------------------------------------
       NWT REQUIRED            3 OUTER ITERATIONS 
       AND A TOTAL OF          5 INNER ITERATIONS.
    ------------------------------------------------

 NO OUTPUT CONTROL FOR STRESS PERIOD    9   TIME STEP   18
 
 SOLVING FOR HEAD 
                                                   Max.-Head-Change                         Max.-Flux-Residual
  Residual-Control   Outer-Iter.   Inner-Iter.     Column Row Layer    Maximum-Head-Change  Column Row Layer    Maximum-Flux-Residual          L2-NORM 
          0                 1           2             1    1     1       0.3365764728E-02       1    1    1         0.1747066910E+00      0.3546270762E+00
          0                 2           2             1    1     1      -0.3273974369E-03       1    1    1        -0.1747068952E-01      0.3544508558E-01
          0                 3           1             1    1     1       0.2229454883E-04       1    1    1         0.1222948608E-02      0.2479439239E-02

    ------------------------------------------------
       NWT REQUIRED            3 OUTER ITERATIONS 
       AND A TOTAL OF          5 INNER ITERATIONS.
    ------------------------------------------------

 NO OUTPUT CONTROL FOR STRESS PERIOD    9   TIME STEP   19
 
 SOLVING FOR HEAD 
                                                   Max.-Head-Change                         Max.-Flux-Residual
  Residual-Control   Outer-Iter.   Inner-Iter.     Column Row Layer    Maximum-Head-Change  Column Row Layer    Maximum-Flux-Residual          L2-NORM 
          0                 1           2             1    1     1       0.3362585635E-02       1    1    1         0.1745413316E+00      0.3532352490E+00
          0                 2           2             1    1     1      -0.3270881961E-03       1    1    1        -0.1745415349E-01      0.3530861371E-01
          0                 3           1             1    1     1       0.2227349059E-04       1    1    1         0.1221791079E-02      0.2470494806E-02

    ------------------------------------------------
       NWT REQUIRED            3 OUTER ITERATIONS 
       AND A TOTAL OF          5 INNER ITERATIONS.
    ------------------------------------------------

 NO OUTPUT CONTROL FOR STRESS PERIOD    9   TIME STEP   20
 
 SOLVING FOR HEAD 
                                                   Max.-Head-Change                         Max.-Flux-Residual
  Residual-Control   Outer-Iter.   Inner-Iter.     Column Row Layer    Maximum-Head-Change  Column Row Layer    Maximum-Flux-Residual          L2-NORM 
          0                 1           2             1    1     1       0.3359416727E-02       1    1    1         0.1743765008E+00      0.3519714104E+00
          0                 2           2             1    1     1      -0.3267799464E-03       1    1    1        -0.1743767031E-01      0.3518395310E-01
          0                 3           1             1    1     1       0.2225249980E-04       1    1    1         0.1220637256E-02      0.2461676844E-02

    ------------------------------------------------
       NWT REQUIRED            3 OUTER ITERATIONS 
       AND A TOTAL OF          5 INNER ITERATIONS.
    ------------------------------------------------

 NO OUTPUT CONTROL FOR STRESS PERIOD    9   TIME STEP   21
 
 SOLVING FOR HEAD 
                                                   Max.-Head-Change                         Max.-Flux-Residual
  Residual-Control   Outer-Iter.   Inner-Iter.     Column Row Layer    Maximum-Head-Change  Column Row Layer    Maximum-Flux-Residual          L2-NORM 
          0                 1           2             1    1     1       0.3356257948E-02       1    1    1         0.1742121980E+00      0.3508249211E+00
          0                 2           2             1    1     1      -0.3264726825E-03       1    1    1        -0.1742123997E-01      0.3507103304E-01
          0                 3           1             1    1     1       0.2223157646E-04       1    1    1         0.1219487134E-02      0.2453823005E-02

    ------------------------------------------------
       NWT REQUIRED            3 OUTER ITERATIONS 
       AND A TOTAL OF          5 INNER ITERATIONS.
    ------------------------------------------------

 NO OUTPUT CONTROL FOR STRESS PERIOD    9   TIME STEP   22
 
 SOLVING FOR HEAD 
                                                   Max.-Head-Change                         Max.-Flux-Residual
  Residual-Control   Outer-Iter.   Inner-Iter.     Column Row Layer    Maximum-Head-Change  Column Row Layer    Maximum-Flux-Residual          L2-NORM 
          0                 1           2             1    1     1       0.3353109265E-02       1    1    1         0.1740484204E+00      0.3497678243E+00
          0                 2           2             1    1     1      -0.3261664001E-03       1    1    1        -0.1740486213E-01      0.3496700737E-01
          0                 3           1             1    1     1       0.2221071939E-04       1    1    1         0.1218340680E-02      0.2446872784E-02

    ------------------------------------------------
       NWT REQUIRED            3 OUTER ITERATIONS 
       AND A TOTAL OF          5 INNER ITERATIONS.
    ------------------------------------------------

 NO OUTPUT CONTROL FOR STRESS PERIOD    9   TIME STEP   23
 
 SOLVING FOR HEAD 
                                                   Max.-Head-Change                         Max.-Flux-Residual
  Residual-Control   Outer-Iter.   Inner-Iter.     Column Row Layer    Maximum-Head-Change  Column Row Layer    Maximum-Flux-Residual          L2-NORM 
          0                 1           2             1    1     1       0.3349970648E-02       1    1    1         0.1738851663E+00      0.3488040565E+00
          0                 2           2             1    1     1      -0.3258610969E-03       1    1    1        -0.1738853663E-01      0.3487197821E-01
          0                 3           1             1    1     1       0.2218992954E-04       1    1    1         0.1217197893E-02      0.2440325370E-02

    ------------------------------------------------
       NWT REQUIRED            3 OUTER ITERATIONS 
       AND A TOTAL OF          5 INNER ITERATIONS.
    ------------------------------------------------

 NO OUTPUT CONTROL FOR STRESS PERIOD    9   TIME STEP   24
 
 SOLVING FOR HEAD 
                                                   Max.-Head-Change                         Max.-Flux-Residual
  Residual-Control   Outer-Iter.   Inner-Iter.     Column Row Layer    Maximum-Head-Change  Column Row Layer    Maximum-Flux-Residual          L2-NORM 
          0                 1           2             1    1     1       0.3346842064E-02       1    1    1         0.1737224340E+00      0.3479113564E+00
          0                 2           2             1    1     1      -0.3255567700E-03       1    1    1        -0.1737226334E-01      0.3478369147E-01
          0                 3           1             1    1     1       0.2216920595E-04       1    1    1         0.1216058760E-02      0.2434160088E-02

    ------------------------------------------------
       NWT REQUIRED            3 OUTER ITERATIONS 
       AND A TOTAL OF          5 INNER ITERATIONS.
    ------------------------------------------------

 NO OUTPUT CONTROL FOR STRESS PERIOD    9   TIME STEP   25
 
 SOLVING FOR HEAD 
                                                   Max.-Head-Change                         Max.-Flux-Residual
  Residual-Control   Outer-Iter.   Inner-Iter.     Column Row Layer    Maximum-Head-Change  Column Row Layer    Maximum-Flux-Residual          L2-NORM 
          0                 1           2             1    1     1       0.3343723481E-02       1    1    1         0.1735602220E+00      0.3470881681E+00
          0                 2           2             1    1     1      -0.3252534155E-03       1    1    1        -0.1735604205E-01      0.3470221656E-01
          0                 3           1             1    1     1       0.2214854911E-04       1    1    1         0.1214923275E-02      0.2428495770E-02

    ------------------------------------------------
       NWT REQUIRED            3 OUTER ITERATIONS 
       AND A TOTAL OF          5 INNER ITERATIONS.
    ------------------------------------------------

 NO OUTPUT CONTROL FOR STRESS PERIOD    9   TIME STEP   26
 
 SOLVING FOR HEAD 
                                                   Max.-Head-Change                         Max.-Flux-Residual
  Residual-Control   Outer-Iter.   Inner-Iter.     Column Row Layer    Maximum-Head-Change  Column Row Layer    Maximum-Flux-Residual          L2-NORM 
          0                 1           2             1    1     1       0.3340614867E-02       1    1    1         0.1733985285E+00      0.3463192179E+00
          0                 2           2             1    1     1      -0.3249510313E-03       1    1    1        -0.1733987263E-01      0.3462621178E-01
          0                 3           1             1    1     1       0.2212795783E-04       1    1    1         0.1213791430E-02      0.2423195741E-02

    ------------------------------------------------
       NWT REQUIRED            3 OUTER ITERATIONS 
       AND A TOTAL OF          5 INNER ITERATIONS.
    ------------------------------------------------

 NO OUTPUT CONTROL FOR STRESS PERIOD    9   TIME STEP   27
 
 SOLVING FOR HEAD 
                                                   Max.-Head-Change                         Max.-Flux-Residual
  Residual-Control   Outer-Iter.   Inner-Iter.     Column Row Layer    Maximum-Head-Change  Column Row Layer    Maximum-Flux-Residual          L2-NORM 
          0                 1           2             1    1     1       0.3337516216E-02       1    1    1         0.1732373520E+00      0.3456028456E+00
          0                 2           2             1    1     1      -0.3246496156E-03       1    1    1        -0.1732375489E-01      0.3455533006E-01
          0                 3           1             1    1     1       0.2210743234E-04       1    1    1         0.1212663174E-02      0.2418353042E-02

    ------------------------------------------------
       NWT REQUIRED            3 OUTER ITERATIONS 
       AND A TOTAL OF          5 INNER ITERATIONS.
    ------------------------------------------------

 NO OUTPUT CONTROL FOR STRESS PERIOD    9   TIME STEP   28
 
 SOLVING FOR HEAD 
                                                   Max.-Head-Change                         Max.-Flux-Residual
  Residual-Control   Outer-Iter.   Inner-Iter.     Column Row Layer    Maximum-Head-Change  Column Row Layer    Maximum-Flux-Residual          L2-NORM 
          0                 1           2             1    1     1       0.3334427472E-02       1    1    1         0.1730766919E+00      0.3449329585E+00
          0                 2           2             1    1     1      -0.3243491639E-03       1    1    1        -0.1730768882E-01      0.3448900810E-01
          0                 3           1             1    1     1       0.2208697264E-04       1    1    1         0.1211538554E-02      0.2413844720E-02

    ------------------------------------------------
       NWT REQUIRED            3 OUTER ITERATIONS 
       AND A TOTAL OF          5 INNER ITERATIONS.
    ------------------------------------------------

 NO OUTPUT CONTROL FOR STRESS PERIOD    9   TIME STEP   29
 
 SOLVING FOR HEAD 
                                                   Max.-Head-Change                         Max.-Flux-Residual
  Residual-Control   Outer-Iter.   Inner-Iter.     Column Row Layer    Maximum-Head-Change  Column Row Layer    Maximum-Flux-Residual          L2-NORM 
          0                 1           2             1    1     1       0.3331348617E-02       1    1    1         0.1729165455E+00      0.3443047541E+00
          0                 2           2             1    1     1      -0.3240496743E-03       1    1    1        -0.1729167410E-01      0.3442675845E-01
          0                 3           1             1    1     1       0.2206657874E-04       1    1    1         0.1210417536E-02      0.2409539210E-02

    ------------------------------------------------
       NWT REQUIRED            3 OUTER ITERATIONS 
       AND A TOTAL OF          5 INNER ITERATIONS.
    ------------------------------------------------

 NO OUTPUT CONTROL FOR STRESS PERIOD    9   TIME STEP   30



 STREAM LISTING     PERIOD      9   STEP       30

 LAYER ROW COL. STREAM  RCH.  FLOW INTO     FLOW TO   FLOW OUT OF   OVRLND.     DIRECT     STREAM       STREAM     STREAM     STREAM   STREAMBED  STREAMBED
                SEG.NO.  NO.  STRM. RCH.    AQUIFER    STRM. RCH.    RUNOFF     PRECIP       ET          HEAD       DEPTH      WIDTH   CONDCTNC.   GRADIENT

   1    1    1     1     1    4.5750E+01  3.2289E-01   4.5427E+01  0.000E+00  0.000E+00  0.000E+00  1.09442E+03  1.372E+00  1.641E+01  7.386E-02  1.457E+00
   1    2    2     1     2    4.5427E+01  5.0023E-01   4.4927E+01  0.000E+00  0.000E+00  0.000E+00  1.08943E+03  1.369E+00  1.636E+01  1.145E-01  1.456E+00
   1    3    3     1     3    4.4927E+01  4.2678E-01   4.4500E+01  0.000E+00  0.000E+00  0.000E+00  1.08378E+03  1.366E+00  1.629E+01  9.776E-02  1.455E+00
   1    3    4     1     4    4.4500E+01  3.9314E-01   4.4107E+01  0.000E+00  0.000E+00  0.000E+00  1.07877E+03  1.363E+00  1.624E+01  9.011E-02  1.454E+00
   1    4    5     2     1    4.2107E+01  3.6245E-01   4.1744E+01  0.000E+00  0.000E+00  0.000E+00  1.07358E+03  1.647E+00  1.200E+01  7.800E-02  1.549E+00
   1    5    6     2     2    4.1744E+01  2.7835E-01   4.1466E+01  0.000E+00  0.000E+00  0.000E+00  1.06815E+03  1.639E+00  1.200E+01  6.000E-02  1.546E+00
   1    6    6     2     3    4.1466E+01  2.7796E-01   4.1188E+01  0.000E+00  0.000E+00  0.000E+00  1.06343E+03  1.633E+00  1.200E+01  6.000E-02  1.544E+00
   1    7    6     2     4    4.1188E+01  2.7756E-01   4.0910E+01  0.000E+00  0.000E+00  0.000E+00  1.05870E+03  1.626E+00  1.200E+01  6.000E-02  1.542E+00
   1    8    6     2     5    4.0910E+01  2.7717E-01   4.0633E+01  0.000E+00  0.000E+00  0.000E+00  1.05398E+03  1.619E+00  1.200E+01  6.000E-02  1.540E+00
   1    3    5     3     1    2.0000E+00  2.8252E-01   1.7175E+00  0.000E+00  0.000E+00  0.000E+00  1.07555E+03  1.909E+00  9.636E+00  7.227E-02  1.955E+00
   1    3    6     3     2    1.7175E+00  2.4905E-01   1.4684E+00  0.000E+00  0.000E+00  0.000E+00  1.07264E+03  1.727E+00  8.909E+00  6.682E-02  1.864E+00
   1    3    7     3     3    1.4684E+00  1.9718E-01   1.2712E+00  0.000E+00  0.000E+00  0.000E+00  1.06987E+03  1.555E+00  8.218E+00  5.547E-02  1.777E+00
   1    4    8     3     4    1.2712E+00  2.2567E-01   1.0456E+00  0.000E+00  0.000E+00  0.000E+00  1.06682E+03  1.364E+00  7.455E+00  6.709E-02  1.682E+00
   1    5    8     3     5    1.0456E+00  1.5790E-01   8.8768E-01  0.000E+00  0.000E+00  0.000E+00  1.06362E+03  1.164E+00  6.655E+00  4.991E-02  1.582E+00
   1    6    8     3     6    8.8768E-01  5.5980E-02   8.3170E-01  0.000E+00  0.000E+00  0.000E+00  1.06158E+03  1.036E+00  6.145E+00  1.844E-02  1.518E+00
   1    5   10     4     1    1.0000E+01  9.0919E-02   9.9091E+00  0.000E+00  0.000E+00  0.000E+00  1.07836E+03  6.368E-01  1.000E+01  2.500E-02  1.212E+00
   1    5    9     4     2    9.9091E+00  1.8158E-01   9.7275E+00  0.000E+00  0.000E+00  0.000E+00  1.07154E+03  6.315E-01  1.000E+01  5.000E-02  1.211E+00
   1    6    8     4     3    9.7275E+00  1.2689E-01   9.6006E+00  0.000E+00  0.000E+00  0.000E+00  1.06381E+03  6.256E-01  1.000E+01  3.500E-02  1.209E+00
   1    6    8     5     1    1.0432E+01  2.2686E-01   1.0205E+01  0.000E+00  0.000E+00  0.000E+00  1.05868E+03  6.790E-01  1.542E+01  6.166E-02  1.226E+00
   1    7    7     5     2    1.0205E+01  2.7894E-01   9.9265E+00  0.000E+00  0.000E+00  0.000E+00  1.05417E+03  6.732E-01  1.519E+01  7.594E-02  1.224E+00
   1    8    7     5     3    9.9265E+00  1.9221E-01   9.7343E+00  0.000E+00  0.000E+00  0.000E+00  1.04992E+03  6.676E-01  1.497E+01  5.241E-02  1.223E+00
   1    8    6     5     4    9.7343E+00  1.3577E-01   9.5985E+00  0.000E+00  0.000E+00  0.000E+00  1.04691E+03  6.637E-01  1.482E+01  3.706E-02  1.221E+00
   1    9    6     6     1    5.0232E+01  2.9116E-01   4.9940E+01  0.000E+00  0.000E+00  0.000E+00  1.04458E+03  1.853E+00  1.200E+01  6.000E-02  1.618E+00
   1   10    7     6     2    4.9940E+01  2.9077E-01   4.9650E+01  0.000E+00  0.000E+00  0.000E+00  1.04003E+03  1.846E+00  1.200E+01  6.000E-02  1.615E+00
   1   11    7     6     3    4.9650E+01  2.9038E-01   4.9359E+01  0.000E+00  0.000E+00  0.000E+00  1.03548E+03  1.840E+00  1.200E+01  6.000E-02  1.613E+00
   1   12    7     6     4    4.9359E+01  2.9000E-01   4.9069E+01  0.000E+00  0.000E+00  0.000E+00  1.03092E+03  1.833E+00  1.200E+01  6.000E-02  1.611E+00
   1   13    7     6     5    4.9069E+01  1.3129E-02   4.9056E+01  0.000E+00  0.000E+00  0.000E+00  1.02774E+03  1.830E+00  1.200E+01  2.400E-02  1.824E-01
   1   14    9     7     1    1.5000E+02  1.3355E+00   1.4866E+02  0.000E+00  0.000E+00  0.000E+00  1.03987E+03  2.288E+00  5.529E+01  5.593E-01  7.959E-01
   1   13    8     7     2    1.4866E+02  1.8110E+00   1.4685E+02  0.000E+00  0.000E+00  0.000E+00  1.03478E+03  2.279E+00  5.526E+01  6.148E-01  9.819E-01
   1   13    7     7     3    1.4685E+02  1.3952E+00   1.4546E+02  0.000E+00  0.000E+00  0.000E+00  1.02969E+03  2.271E+00  5.522E+01  5.585E-01  8.327E-01
   1   13    6     8     1    1.9451E+02  9.3668E-01   1.9358E+02  0.000E+00  0.000E+00  0.000E+00  1.02498E+03  3.102E+00  4.498E+01  4.584E-01  6.811E-01
   1   13    5     8     2    1.9358E+02  1.5448E-01   1.9342E+02  0.000E+00  0.000E+00  0.000E+00  1.01872E+03  3.099E+00  4.494E+01  4.579E-01  1.124E-01
   1   13    4     8     3    1.9342E+02 -2.4350E+00   1.9586E+02  0.000E+00  0.000E+00  0.000E+00  1.01248E+03  3.106E+00  4.504E+01  4.589E+00 -1.769E-01
   1   13    3     8     4    1.9586E+02 -3.5335E+00   1.9939E+02  0.000E+00  0.000E+00  0.000E+00  1.00625E+03  3.124E+00  4.529E+01  4.616E+00 -2.552E-01
   1   13    2     8     5    1.9939E+02 -2.5706E+00   2.0196E+02  0.000E+00  0.000E+00  0.000E+00  1.00002E+03  3.142E+00  4.555E+01  4.642E+00 -1.846E-01
   1   13    1     8     6    2.0196E+02 -2.0000E+00   2.0396E+02  0.000E+00  0.000E+00  0.000E+00  9.95030E+02  3.155E+00  4.575E+01  2.797E+00 -2.383E-01
   1    8    6     9     1    0.0000E+00  0.0000E+00   0.0000E+00  0.000E+00  0.000E+00  0.000E+00  1.07875E+03  0.000E+00  4.000E+00  0.000E+00  1.000E+00
   1    8    5     9     2    0.0000E+00  0.0000E+00   0.0000E+00  0.000E+00  0.000E+00  0.000E+00  1.07825E+03  0.000E+00  4.000E+00  0.000E+00  1.000E+00





UNSATURATED ZONE PACKAGE VOLUMETRIC BUDGET FOR  TIME STEP    30 STRESS PERIOD    9
  ------------------------------------------------------------------------------



     CUMULATIVE VOLUMES      L**3       RATES FOR THIS TIME STEP      L**3/T
     ------------------                 ------------------------

           IN:                                      IN:
           ---                                      ---
        INFILTRATION =    93342870.0854          INFILTRATION =           4.4075

          OUT:                                     OUT:
          ----                                     ----
              UZF ET =    74554534.4072                UZF ET =           4.4075
        UZF RECHARGE =       73224.0000          UZF RECHARGE =       0.0000E+00

            IN - OUT =    18715111.6782              IN - OUT =       0.0000E+00

          STORAGE:                                 STORAGE:
          --------                                 --------
      STORAGE CHANGE =    18715111.4112        STORAGE CHANGE =       1.3445E-14

 PERCENT DISCREPANCY IS DIFFERENCE BETWEEN IN-OUT MINUS CHANGE IN STORAGE
 DIVIDED BY THE AVERAGE OF IN AND OUT TIMES 100

 PERCENT DISCREPANCY =           0.00     PERCENT DISCREPANCY =           0.00






1
  VOLUMETRIC BUDGET FOR ENTIRE MODEL AT END OF TIME STEP   30, STRESS PERIOD   9
  ------------------------------------------------------------------------------

     CUMULATIVE VOLUMES      L**3       RATES FOR THIS TIME STEP      L**3/T
     ------------------                 ------------------------

           IN:                                      IN:
           ---                                      ---
               AG WELLS  =           0.0000                 AG WELLS  =           0.0000
        DIVERSION SEGMEN =      535838.9375          DIVERSION SEGMEN =           0.0000
    TS         GW IRRIGA =           0.0000      TS         GW IRRIGA =           0.0000
    TION         SW IRRI =           0.0000      TION         SW IRRI =           0.0000
    GATION      SYSTEM L =           0.0000      GATION      SYSTEM L =           0.0000
    OSSES GW      SYSTEM =           0.0000      OSSES GW      SYSTEM =           0.0000

                TOTAL IN =      535838.9375                  TOTAL IN =           0.0000

          OUT:                                     OUT:
          ----                                     ----
               AG WELLS  =           0.0000                 AG WELLS  =           0.0000
        DIVERSION SEGMEN =           0.0000          DIVERSION SEGMEN =           0.0000
    TS         GW IRRIGA =           0.0000      TS         GW IRRIGA =           0.0000
    TION         SW IRRI =      535849.6250      TION         SW IRRI =           0.0000
    GATION      SYSTEM L =           0.0000      GATION      SYSTEM L =           0.0000
    OSSES GW      SYSTEM =           0.0000      OSSES GW      SYSTEM =           0.0000

               TOTAL OUT =      535849.6250                 TOTAL OUT =           0.0000

                IN - OUT =         -10.6875                  IN - OUT =           0.0000

     PERCENT DISCREPANCY =          -0.00         PERCENT DISCREPANCY =           0.00



1
  VOLUMETRIC BUDGET FOR ENTIRE MODEL AT END OF TIME STEP   30, STRESS PERIOD   9
  ------------------------------------------------------------------------------

     CUMULATIVE VOLUMES      L**3       RATES FOR THIS TIME STEP      L**3/T
     ------------------                 ------------------------

           IN:                                      IN:
           ---                                      ---
             STORAGE     =    13266430.0000               STORAGE     =           0.3354
       CONSTANT HEAD     =           0.0000         CONSTANT HEAD     =           0.0000
     HEAD DEP BOUNDS     =     6036394.0000       HEAD DEP BOUNDS     =           0.2857
      STREAM LEAKAGE     =   261299568.0000        STREAM LEAKAGE     =          12.3262
        UZF RECHARGE     =       73223.9531          UZF RECHARGE     =           0.0000
               GW ET     =           0.0000                 GW ET     =           0.0000
     SURFACE LEAKAGE     =           0.0000       SURFACE LEAKAGE     =           0.0000
           AG WELLS      =           0.0000             AG WELLS      =           0.0000

                TOTAL IN =   280675616.0000                  TOTAL IN =          12.9474

          OUT:                                     OUT:
          ----                                     ----
             STORAGE     =    49113020.0000               STORAGE     =           1.6988
       CONSTANT HEAD     =           0.0000         CONSTANT HEAD     =           0.0000
     HEAD DEP BOUNDS     =     6195553.0000       HEAD DEP BOUNDS     =           0.2943
      STREAM LEAKAGE     =   218844768.0000        STREAM LEAKAGE     =          10.5391
        UZF RECHARGE     =           0.0000          UZF RECHARGE     =           0.0000
               GW ET     =     6531802.5000                 GW ET     =           0.4156
     SURFACE LEAKAGE     =           0.0000       SURFACE LEAKAGE     =           0.0000
           AG WELLS      =           0.0000             AG WELLS      =           0.0000

               TOTAL OUT =   280685152.0000                 TOTAL OUT =          12.9478

                IN - OUT =       -9536.0000                  IN - OUT =      -3.8624E-04

     PERCENT DISCREPANCY =          -0.00         PERCENT DISCREPANCY =          -0.00






         TIME SUMMARY AT END OF TIME STEP   30 IN STRESS PERIOD    9
                    SECONDS     MINUTES      HOURS       DAYS        YEARS
                    -----------------------------------------------------------
   TIME STEP LENGTH  87667.      1461.1      24.352      1.0147     2.77799E-03
 STRESS PERIOD TIME 2.63000E+06  43833.      730.56      30.440     8.33397E-02
         TOTAL TIME 2.11264E+07 3.52107E+05  5868.4      244.52     0.66945    
1
1
                            STRESS PERIOD NO.   10, LENGTH =   2630000.    
                            -----------------------------------------------

                              NUMBER OF TIME STEPS =    30

                               MULTIPLIER FOR DELT =     1.000

                            INITIAL TIME STEP SIZE =   87666.66    

 REUSING NON-PARAMETER GHB CELLS FROM LAST STRESS PERIOD

      2 GHB CELLS

 REUSING STREAM SEGMENT DATA FROM LAST STRESS PERIOD



            AREAL INFILTRATION RATE
 READING ON UNIT   19 WITH FORMAT: (10F4.0)            

            1           2           3           4           5           6           7           8           9          10
 ........................................................................................................................
   1   1.2000E-09   0.000       0.000       0.000       0.000       0.000       0.000       0.000       0.000       0.000    
   2   2.1000E-09  2.0000E-09  8.0000E-10  8.5000E-09   0.000       0.000       0.000       0.000       0.000       0.000    
   3   5.0000E-10  1.1000E-09  8.8000E-09  5.5000E-09   0.000       0.000       0.000       0.000       0.000       0.000    
   4   8.5000E-09  1.1000E-09  1.1000E-09  1.1000E-09  2.0000E-09   0.000       0.000       0.000       0.000       0.000    
   5   8.5000E-09  1.1000E-09  1.1000E-09  1.1000E-09  1.1000E-09   0.000       0.000       0.000       0.000       0.000    
   6   8.5000E-09  5.2000E-09  2.1000E-09  1.1000E-09  1.5000E-09   0.000       0.000       0.000       0.000       0.000    
   7   8.5000E-09  5.2000E-09  2.1000E-09  1.2000E-09  2.0000E-09   0.000       0.000       0.000       0.000       0.000    
   8   5.0000E-10  5.2000E-09  2.1000E-09  1.2000E-09  5.0000E-09   0.000       0.000       0.000       0.000       0.000    
   9   5.0000E-10  5.2000E-09  2.1000E-09  1.2000E-09  5.0000E-09   0.000       0.000       0.000       0.000       0.000    
  10   5.0000E-10  5.2000E-09  2.1000E-09  1.2000E-09  5.8000E-09   0.000       0.000       0.000       0.000       0.000    
  11   1.0000E-10  1.1000E-09  1.1000E-09  1.2000E-09  5.0000E-09   0.000       0.000       0.000       0.000       0.000    
  12   1.1000E-09  1.1000E-09  1.1000E-09  1.1000E-09  2.0000E-09   0.000       0.000       0.000       0.000       0.000    
  13   1.1000E-09  2.2000E-09  2.2000E-09  2.1000E-09  1.0000E-09   0.000       0.000       0.000       0.000       0.000    
  14   2.0000E-10  5.5000E-09  5.5000E-09  5.2000E-09  1.0000E-09   0.000       0.000       0.000       0.000       0.000    
  15    0.000      8.8000E-09  8.8000E-09   0.000       0.000       0.000       0.000       0.000       0.000       0.000    

                  ET RATE =  7.500000E-08

 USING ET EXTINCTION DEPTH FROM PREVIOUS STRESS PERIOD. CURRENT PERIOD IS:      10

 USING EXTINCTION WATER CONTENT FROM PREVIOUS STRESS PERIOD. CURRENT PERIOD IS:      10

 USING AIR ENTRY PRESSURE FROM PREVIOUS STRESS PERIOD. CURRENT PERIOD IS:      10

 USING ROOT PRESSURE HEAD FROM PREVIOUS STRESS PERIOD. CURRENT PERIOD IS:      10

 USING ROOT ACTIVITY FROM PREVIOUS STRESS PERIOD. CURRENT PERIOD IS:      10

 PROCESSING AG STRESS PERIOD DATA

 READING AG STRESS PERIOD DATA

 READING IRRIGATION SEGMENT

 READING IRRIGATION WELL

 READING SUPPLEMENTAL WELL

 END PROCESSING AG STRESS PERIOD DATA OPTIONS
 
 SOLVING FOR HEAD 
                                                   Max.-Head-Change                         Max.-Flux-Residual
  Residual-Control   Outer-Iter.   Inner-Iter.     Column Row Layer    Maximum-Head-Change  Column Row Layer    Maximum-Flux-Residual          L2-NORM 
          0                 1           2             1    1     1       0.3224156965E-02       1    1    1         0.1673485425E+00      0.3848423176E+00
          0                 2           2             1    1     1      -0.3136228241E-03       1    1    1        -0.1673487213E-01      0.3842998738E-01
          0                 3           1             1    1     1       0.2135654875E-04       1    1    1         0.1171441378E-02      0.2685498674E-02

    ------------------------------------------------
       NWT REQUIRED            3 OUTER ITERATIONS 
       AND A TOTAL OF          5 INNER ITERATIONS.
    ------------------------------------------------

 NO OUTPUT CONTROL FOR STRESS PERIOD   10   TIME STEP    1
 
 SOLVING FOR HEAD 
                                                   Max.-Head-Change                         Max.-Flux-Residual
  Residual-Control   Outer-Iter.   Inner-Iter.     Column Row Layer    Maximum-Head-Change  Column Row Layer    Maximum-Flux-Residual          L2-NORM 
          0                 1           2             2   13     1      -0.3957236823E-02       2   13    1        -0.2243029420E+00      0.4101364468E+00
          0                 2           2             2   13     1       0.3773796365E-03       2   13    1         0.2199173565E-01      0.4059148939E-01
          0                 3           1             2   13     1      -0.2500948118E-04       2   13    1        -0.1498318646E-02      0.2802267005E-02

    ------------------------------------------------
       NWT REQUIRED            3 OUTER ITERATIONS 
       AND A TOTAL OF          5 INNER ITERATIONS.
    ------------------------------------------------

 NO OUTPUT CONTROL FOR STRESS PERIOD   10   TIME STEP    2
 
 SOLVING FOR HEAD 
                                                   Max.-Head-Change                         Max.-Flux-Residual
  Residual-Control   Outer-Iter.   Inner-Iter.     Column Row Layer    Maximum-Head-Change  Column Row Layer    Maximum-Flux-Residual          L2-NORM 
          0                 1           2             2   13     1      -0.3630323301E-02       2   13    1        -0.2057374343E+00      0.3934355713E+00
          0                 2           2             2   13     1       0.3463406165E-03       2   13    1         0.2017936207E-01      0.3897614802E-01
          0                 3           1             2   13     1      -0.2295533504E-04       2   13    1        -0.1375004682E-02      0.2693683078E-02

    ------------------------------------------------
       NWT REQUIRED            3 OUTER ITERATIONS 
       AND A TOTAL OF          5 INNER ITERATIONS.
    ------------------------------------------------

 NO OUTPUT CONTROL FOR STRESS PERIOD   10   TIME STEP    3
 
 SOLVING FOR HEAD 
                                                   Max.-Head-Change                         Max.-Flux-Residual
  Residual-Control   Outer-Iter.   Inner-Iter.     Column Row Layer    Maximum-Head-Change  Column Row Layer    Maximum-Flux-Residual          L2-NORM 
          0                 1           2             2   13     1      -0.3330867620E-02       2   13    1        -0.1887333966E+00      0.3789153382E+00
          0                 2           2             2   13     1       0.3179002892E-03       2   13    1         0.1851894982E-01      0.3757065467E-01
          0                 3           1             2   13     1      -0.2107707903E-04       2   13    1        -0.1262257818E-02      0.2599867358E-02

    ------------------------------------------------
       NWT REQUIRED            3 OUTER ITERATIONS 
       AND A TOTAL OF          5 INNER ITERATIONS.
    ------------------------------------------------

 NO OUTPUT CONTROL FOR STRESS PERIOD   10   TIME STEP    4
 
 SOLVING FOR HEAD 
                                                   Max.-Head-Change                         Max.-Flux-Residual
  Residual-Control   Outer-Iter.   Inner-Iter.     Column Row Layer    Maximum-Head-Change  Column Row Layer    Maximum-Flux-Residual          L2-NORM 
          0                 1           2             2   13     1      -0.3056590930E-02       2   13    1        -0.1731609984E+00      0.3662702198E+00
          0                 2           2             2   13     1       0.2918478926E-03       2   13    1         0.1699814500E-01      0.3635095787E-01
          0                 3           1             2   13     1      -0.1936318161E-04       2   13    1        -0.1159395661E-02      0.2518544254E-02

    ------------------------------------------------
       NWT REQUIRED            3 OUTER ITERATIONS 
       AND A TOTAL OF          5 INNER ITERATIONS.
    ------------------------------------------------

 NO OUTPUT CONTROL FOR STRESS PERIOD   10   TIME STEP    5
 
 SOLVING FOR HEAD 
                                                   Max.-Head-Change                         Max.-Flux-Residual
  Residual-Control   Outer-Iter.   Inner-Iter.     Column Row Layer    Maximum-Head-Change  Column Row Layer    Maximum-Flux-Residual          L2-NORM 
          0                 1           2             3    2     1       0.2846038258E-02       2   13    1        -0.1588926522E+00      0.3552301523E+00
          0                 2           2             3    2     1      -0.2768421922E-03       2   13    1         0.1560201247E-01      0.3528321197E-01
          0                 3           1             3    2     1       0.1885192711E-04       2   13    1        -0.1064973036E-02      0.2447061745E-02

    ------------------------------------------------
       NWT REQUIRED            3 OUTER ITERATIONS 
       AND A TOTAL OF          5 INNER ITERATIONS.
    ------------------------------------------------

 NO OUTPUT CONTROL FOR STRESS PERIOD   10   TIME STEP    6
 
 SOLVING FOR HEAD 
                                                   Max.-Head-Change                         Max.-Flux-Residual
  Residual-Control   Outer-Iter.   Inner-Iter.     Column Row Layer    Maximum-Head-Change  Column Row Layer    Maximum-Flux-Residual          L2-NORM 
          0                 1           2             3    2     1       0.2830788383E-02       3    2    1         0.1476598955E+00      0.3455729675E+00
          0                 2           2             3    2     1      -0.2753587913E-03       3    2    1        -0.1476600781E-01      0.3434943322E-01
          0                 3           1             3    2     1       0.1875091330E-04       3    2    1         0.1033620828E-02      0.2384969270E-02

    ------------------------------------------------
       NWT REQUIRED            3 OUTER ITERATIONS 
       AND A TOTAL OF          5 INNER ITERATIONS.
    ------------------------------------------------

 NO OUTPUT CONTROL FOR STRESS PERIOD   10   TIME STEP    7
 
 SOLVING FOR HEAD 
                                                   Max.-Head-Change                         Max.-Flux-Residual
  Residual-Control   Outer-Iter.   Inner-Iter.     Column Row Layer    Maximum-Head-Change  Column Row Layer    Maximum-Flux-Residual          L2-NORM 
          0                 1           2             3    2     1       0.2815761322E-02       3    2    1         0.1468692056E+00      0.3371074094E+00
          0                 2           2             3    2     1      -0.2738970633E-03       3    2    1        -0.1468693854E-01      0.3353106849E-01
          0                 3           1             3    2     1       0.1865137515E-04       3    2    1         0.1028085972E-02      0.2330281836E-02

    ------------------------------------------------
       NWT REQUIRED            3 OUTER ITERATIONS 
       AND A TOTAL OF          5 INNER ITERATIONS.
    ------------------------------------------------

 NO OUTPUT CONTROL FOR STRESS PERIOD   10   TIME STEP    8
 
 SOLVING FOR HEAD 
                                                   Max.-Head-Change                         Max.-Flux-Residual
  Residual-Control   Outer-Iter.   Inner-Iter.     Column Row Layer    Maximum-Head-Change  Column Row Layer    Maximum-Flux-Residual          L2-NORM 
          0                 1           2             3    2     1       0.2800954269E-02       3    2    1         0.1460900685E+00      0.3296679902E+00
          0                 2           2             3    2     1      -0.2724567366E-03       3    2    1        -0.1460902456E-01      0.3281134488E-01
          0                 3           1             3    2     1       0.1855329396E-04       3    2    1         0.1022631981E-02      0.2282286884E-02

    ------------------------------------------------
       NWT REQUIRED            3 OUTER ITERATIONS 
       AND A TOTAL OF          5 INNER ITERATIONS.
    ------------------------------------------------

 NO OUTPUT CONTROL FOR STRESS PERIOD   10   TIME STEP    9
 
 SOLVING FOR HEAD 
                                                   Max.-Head-Change                         Max.-Flux-Residual
  Residual-Control   Outer-Iter.   Inner-Iter.     Column Row Layer    Maximum-Head-Change  Column Row Layer    Maximum-Flux-Residual          L2-NORM 
          0                 1           2             3    2     1       0.2786363381E-02       3    2    1         0.1453223385E+00      0.3231202166E+00
          0                 2           2             3    2     1      -0.2710374370E-03       3    2    1        -0.1453225126E-01      0.3217716194E-01
          0                 3           1             3    2     1       0.1845664559E-04       3    2    1         0.1017257872E-02      0.2239631071E-02

    ------------------------------------------------
       NWT REQUIRED            3 OUTER ITERATIONS 
       AND A TOTAL OF          5 INNER ITERATIONS.
    ------------------------------------------------

 NO OUTPUT CONTROL FOR STRESS PERIOD   10   TIME STEP   10
 
 SOLVING FOR HEAD 
                                                   Max.-Head-Change                         Max.-Flux-Residual
  Residual-Control   Outer-Iter.   Inner-Iter.     Column Row Layer    Maximum-Head-Change  Column Row Layer    Maximum-Flux-Residual          L2-NORM 
          0                 1           2             3    2     1       0.2771983395E-02       3    2    1         0.1445658165E+00      0.3173380087E+00
          0                 2           2             3    2     1      -0.2696386532E-03       3    2    1        -0.1445659883E-01      0.3161682253E-01
          0                 3           1             3    2     1       0.1836139359E-04       3    2    1         0.1011962205E-02      0.2202240055E-02

    ------------------------------------------------
       NWT REQUIRED            3 OUTER ITERATIONS 
       AND A TOTAL OF          5 INNER ITERATIONS.
    ------------------------------------------------

 NO OUTPUT CONTROL FOR STRESS PERIOD   10   TIME STEP   11
 
 SOLVING FOR HEAD 
                                                   Max.-Head-Change                         Max.-Flux-Residual
  Residual-Control   Outer-Iter.   Inner-Iter.     Column Row Layer    Maximum-Head-Change  Column Row Layer    Maximum-Flux-Residual          L2-NORM 
          0                 1           2             3    2     1       0.2757725620E-02       3    2    1         0.1438157013E+00      0.3122251378E+00
          0                 2           2             3    2     1      -0.2682517562E-03       3    2    1        -0.1438158705E-01      0.3112112566E-01
          0                 3           1             3    2     1       0.1826695125E-04       3    2    1         0.1006711369E-02      0.2168609817E-02

    ------------------------------------------------
       NWT REQUIRED            3 OUTER ITERATIONS 
       AND A TOTAL OF          5 INNER ITERATIONS.
    ------------------------------------------------

 NO OUTPUT CONTROL FOR STRESS PERIOD   10   TIME STEP   12
 
 SOLVING FOR HEAD 
                                                   Max.-Head-Change                         Max.-Flux-Residual
  Residual-Control   Outer-Iter.   Inner-Iter.     Column Row Layer    Maximum-Head-Change  Column Row Layer    Maximum-Flux-Residual          L2-NORM 
          0                 1           2             3    2     1       0.2743760208E-02       3    2    1         0.1430809790E+00      0.3076970689E+00
          0                 2           2             3    2     1      -0.2668932987E-03       3    2    1        -0.1430811455E-01      0.3068142495E-01
          0                 3           1             3    2     1       0.1817444584E-04       3    2    1         0.1001568311E-02      0.2139400286E-02

    ------------------------------------------------
       NWT REQUIRED            3 OUTER ITERATIONS 
       AND A TOTAL OF          5 INNER ITERATIONS.
    ------------------------------------------------

 NO OUTPUT CONTROL FOR STRESS PERIOD   10   TIME STEP   13
 
 SOLVING FOR HEAD 
                                                   Max.-Head-Change                         Max.-Flux-Residual
  Residual-Control   Outer-Iter.   Inner-Iter.     Column Row Layer    Maximum-Head-Change  Column Row Layer    Maximum-Flux-Residual          L2-NORM 
          0                 1           2             3    2     1       0.2729910150E-02       3    2    1         0.1423523590E+00      0.3036719190E+00
          0                 2           2             3    2     1      -0.2655460612E-03       3    2    1        -0.1423525229E-01      0.3029136803E-01
          0                 3           1             3    2     1       0.1808270347E-04       3    2    1         0.9964679204E-03      0.2113353651E-02

    ------------------------------------------------
       NWT REQUIRED            3 OUTER ITERATIONS 
       AND A TOTAL OF          5 INNER ITERATIONS.
    ------------------------------------------------

 NO OUTPUT CONTROL FOR STRESS PERIOD   10   TIME STEP   14
 
 SOLVING FOR HEAD 
                                                   Max.-Head-Change                         Max.-Flux-Residual
  Residual-Control   Outer-Iter.   Inner-Iter.     Column Row Layer    Maximum-Head-Change  Column Row Layer    Maximum-Flux-Residual          L2-NORM 
          0                 1           2             3    2     1       0.2716345323E-02       3    2    1         0.1416387765E+00      0.3000875902E+00
          0                 2           2             3    2     1      -0.2642265700E-03       3    2    1        -0.1416389380E-01      0.2994250435E-01
          0                 3           1             3    2     1       0.1799285118E-04       3    2    1         0.9914728356E-03      0.2089760077E-02

    ------------------------------------------------
       NWT REQUIRED            3 OUTER ITERATIONS 
       AND A TOTAL OF          5 INNER ITERATIONS.
    ------------------------------------------------

 NO OUTPUT CONTROL FOR STRESS PERIOD   10   TIME STEP   15
 
 SOLVING FOR HEAD 
                                                   Max.-Head-Change                         Max.-Flux-Residual
  Residual-Control   Outer-Iter.   Inner-Iter.     Column Row Layer    Maximum-Head-Change  Column Row Layer    Maximum-Flux-Residual          L2-NORM 
          0                 1           2             3    2     1       0.2702888430E-02       3    2    1         0.1409309262E+00      0.2968923530E+00
          0                 2           2             3    2     1      -0.2629175780E-03       3    2    1        -0.1409310854E-01      0.2963158963E-01
          0                 3           1             3    2     1       0.1790371387E-04       3    2    1         0.9865178825E-03      0.2068921014E-02

    ------------------------------------------------
       NWT REQUIRED            3 OUTER ITERATIONS 
       AND A TOTAL OF          5 INNER ITERATIONS.
    ------------------------------------------------

 NO OUTPUT CONTROL FOR STRESS PERIOD   10   TIME STEP   16
 
 SOLVING FOR HEAD 
                                                   Max.-Head-Change                         Max.-Flux-Residual
  Residual-Control   Outer-Iter.   Inner-Iter.     Column Row Layer    Maximum-Head-Change  Column Row Layer    Maximum-Flux-Residual          L2-NORM 
          0                 1           2             3    2     1       0.2689623391E-02       3    2    1         0.1402332006E+00      0.2940271804E+00
          0                 2           2             3    2     1      -0.2616272478E-03       3    2    1        -0.1402333575E-01      0.2935288431E-01
          0                 3           1             3    2     1       0.1781584702E-04       3    2    1         0.9816337708E-03      0.2049987004E-02

    ------------------------------------------------
       NWT REQUIRED            3 OUTER ITERATIONS 
       AND A TOTAL OF          5 INNER ITERATIONS.
    ------------------------------------------------

 NO OUTPUT CONTROL FOR STRESS PERIOD   10   TIME STEP   17
 
 SOLVING FOR HEAD 
                                                   Max.-Head-Change                         Max.-Flux-Residual
  Residual-Control   Outer-Iter.   Inner-Iter.     Column Row Layer    Maximum-Head-Change  Column Row Layer    Maximum-Flux-Residual          L2-NORM 
          0                 1           2             3    2     1       0.2676547934E-02       3    2    1         0.1395454223E+00      0.2914645156E+00
          0                 2           2             3    2     1      -0.2603553584E-03       3    2    1        -0.1395455766E-01      0.2910253606E-01
          0                 3           1             3    2     1       0.1772923620E-04       3    2    1         0.9768193121E-03      0.2032626934E-02

    ------------------------------------------------
       NWT REQUIRED            3 OUTER ITERATIONS 
       AND A TOTAL OF          5 INNER ITERATIONS.
    ------------------------------------------------

 NO OUTPUT CONTROL FOR STRESS PERIOD   10   TIME STEP   18
 
 SOLVING FOR HEAD 
                                                   Max.-Head-Change                         Max.-Flux-Residual
  Residual-Control   Outer-Iter.   Inner-Iter.     Column Row Layer    Maximum-Head-Change  Column Row Layer    Maximum-Flux-Residual          L2-NORM 
          0                 1           2             3    2     1       0.2663657667E-02       3    2    1         0.1388674738E+00      0.2891549740E+00
          0                 2           2             3    2     1      -0.2591014837E-03       3    2    1        -0.1388676259E-01      0.2887749684E-01
          0                 3           1             3    2     1       0.1764385230E-04       3    2    1         0.9720736526E-03      0.2018199573E-02

    ------------------------------------------------
       NWT REQUIRED            3 OUTER ITERATIONS 
       AND A TOTAL OF          5 INNER ITERATIONS.
    ------------------------------------------------

 NO OUTPUT CONTROL FOR STRESS PERIOD   10   TIME STEP   19
 
 SOLVING FOR HEAD 
                                                   Max.-Head-Change                         Max.-Flux-Residual
  Residual-Control   Outer-Iter.   Inner-Iter.     Column Row Layer    Maximum-Head-Change  Column Row Layer    Maximum-Flux-Residual          L2-NORM 
          0                 1           2             3    2     1       0.2650949750E-02       3    2    1         0.1381991271E+00      0.2870792413E+00
          0                 2           2             3    2     1      -0.2578653468E-03       3    2    1        -0.1381992771E-01      0.2867478570E-01
          0                 3           1             3    2     1       0.1755967613E-04       3    2    1         0.9673952170E-03      0.2004030213E-02

    ------------------------------------------------
       NWT REQUIRED            3 OUTER ITERATIONS 
       AND A TOTAL OF          5 INNER ITERATIONS.
    ------------------------------------------------

 NO OUTPUT CONTROL FOR STRESS PERIOD   10   TIME STEP   20
 
 SOLVING FOR HEAD 
                                                   Max.-Head-Change                         Max.-Flux-Residual
  Residual-Control   Outer-Iter.   Inner-Iter.     Column Row Layer    Maximum-Head-Change  Column Row Layer    Maximum-Flux-Residual          L2-NORM 
          0                 1           2             3    2     1       0.2638335172E-02       3    2    1         0.1375357062E+00      0.2851999840E+00
          0                 2           2             3    2     1      -0.2566382891E-03       3    2    1        -0.1375358539E-01      0.2849125680E-01
          0                 3           1             3    2     1       0.1747611840E-04       3    2    1         0.9627512613E-03      0.1991971378E-02

    ------------------------------------------------
       NWT REQUIRED            3 OUTER ITERATIONS 
       AND A TOTAL OF          5 INNER ITERATIONS.
    ------------------------------------------------

 NO OUTPUT CONTROL FOR STRESS PERIOD   10   TIME STEP   21
 
 SOLVING FOR HEAD 
                                                   Max.-Head-Change                         Max.-Flux-Residual
  Residual-Control   Outer-Iter.   Inner-Iter.     Column Row Layer    Maximum-Head-Change  Column Row Layer    Maximum-Flux-Residual          L2-NORM 
          0                 1           2             3    2     1       0.2625983545E-02       3    2    1         0.1368861826E+00      0.2834924022E+00
          0                 2           2             3    2     1      -0.2554368091E-03       3    2    1        -0.1368863282E-01      0.2832414828E-01
          0                 3           1             3    2     1       0.1739430163E-04       3    2    1         0.9582045665E-03      0.1980324992E-02

    ------------------------------------------------
       NWT REQUIRED            3 OUTER ITERATIONS 
       AND A TOTAL OF          5 INNER ITERATIONS.
    ------------------------------------------------

 NO OUTPUT CONTROL FOR STRESS PERIOD   10   TIME STEP   22
 
 SOLVING FOR HEAD 
                                                   Max.-Head-Change                         Max.-Flux-Residual
  Residual-Control   Outer-Iter.   Inner-Iter.     Column Row Layer    Maximum-Head-Change  Column Row Layer    Maximum-Flux-Residual          L2-NORM 
          0                 1           2             3    2     1       0.2613805934E-02       3    2    1         0.1362457638E+00      0.2819515832E+00
          0                 2           2             3    2     1      -0.2542522562E-03       3    2    1        -0.1362459072E-01      0.2817318533E-01
          0                 3           1             3    2     1       0.1731363794E-04       3    2    1         0.9537216138E-03      0.1970039132E-02

    ------------------------------------------------
       NWT REQUIRED            3 OUTER ITERATIONS 
       AND A TOTAL OF          5 INNER ITERATIONS.
    ------------------------------------------------

 NO OUTPUT CONTROL FOR STRESS PERIOD   10   TIME STEP   23
 
 SOLVING FOR HEAD 
                                                   Max.-Head-Change                         Max.-Flux-Residual
  Residual-Control   Outer-Iter.   Inner-Iter.     Column Row Layer    Maximum-Head-Change  Column Row Layer    Maximum-Flux-Residual          L2-NORM 
          0                 1           2             3    2     1       0.2601711320E-02       3    2    1         0.1356098386E+00      0.2805395374E+00
          0                 2           2             3    2     1      -0.2530757770E-03       3    2    1        -0.1356099798E-01      0.2803460886E-01
          0                 3           1             3    2     1       0.1723352451E-04       3    2    1         0.9492701377E-03      0.1960671126E-02

    ------------------------------------------------
       NWT REQUIRED            3 OUTER ITERATIONS 
       AND A TOTAL OF          5 INNER ITERATIONS.
    ------------------------------------------------

 NO OUTPUT CONTROL FOR STRESS PERIOD   10   TIME STEP   24
 
 SOLVING FOR HEAD 
                                                   Max.-Head-Change                         Max.-Flux-Residual
  Residual-Control   Outer-Iter.   Inner-Iter.     Column Row Layer    Maximum-Head-Change  Column Row Layer    Maximum-Flux-Residual          L2-NORM 
          0                 1           2             1    1     1       0.2594856725E-02       3    2    1         0.1349872748E+00      0.2792565297E+00
          0                 2           2             1    1     1      -0.2524089412E-03       3    2    1        -0.1349874142E-01      0.2790872388E-01
          0                 3           1             1    1     1       0.1718811164E-04       3    2    1         0.9449121782E-03      0.1951929104E-02

    ------------------------------------------------
       NWT REQUIRED            3 OUTER ITERATIONS 
       AND A TOTAL OF          5 INNER ITERATIONS.
    ------------------------------------------------

 NO OUTPUT CONTROL FOR STRESS PERIOD   10   TIME STEP   25
 
 SOLVING FOR HEAD 
                                                   Max.-Head-Change                         Max.-Flux-Residual
  Residual-Control   Outer-Iter.   Inner-Iter.     Column Row Layer    Maximum-Head-Change  Column Row Layer    Maximum-Flux-Residual          L2-NORM 
          0                 1           2             1    1     1       0.2593019773E-02       1    1    1         0.1345634580E+00      0.2780725675E+00
          0                 2           2             1    1     1      -0.2522302553E-03       1    1    1        -0.1345635512E-01      0.2779203927E-01
          0                 3           1             1    1     1       0.1717594380E-04       1    1    1         0.9419451722E-03      0.1943970150E-02

    ------------------------------------------------
       NWT REQUIRED            3 OUTER ITERATIONS 
       AND A TOTAL OF          5 INNER ITERATIONS.
    ------------------------------------------------

 NO OUTPUT CONTROL FOR STRESS PERIOD   10   TIME STEP   26
 
 SOLVING FOR HEAD 
                                                   Max.-Head-Change                         Max.-Flux-Residual
  Residual-Control   Outer-Iter.   Inner-Iter.     Column Row Layer    Maximum-Head-Change  Column Row Layer    Maximum-Flux-Residual          L2-NORM 
          0                 1           2             1    1     1       0.2591187878E-02       1    1    1         0.1344682150E+00      0.2769862858E+00
          0                 2           2             1    1     1      -0.2520520618E-03       1    1    1        -0.1344683079E-01      0.2768557700E-01
          0                 3           1             1    1     1       0.1716381003E-04       1    1    1         0.9412784908E-03      0.1936788867E-02

    ------------------------------------------------
       NWT REQUIRED            3 OUTER ITERATIONS 
       AND A TOTAL OF          5 INNER ITERATIONS.
    ------------------------------------------------

 NO OUTPUT CONTROL FOR STRESS PERIOD   10   TIME STEP   27
 
 SOLVING FOR HEAD 
                                                   Max.-Head-Change                         Max.-Flux-Residual
  Residual-Control   Outer-Iter.   Inner-Iter.     Column Row Layer    Maximum-Head-Change  Column Row Layer    Maximum-Flux-Residual          L2-NORM 
          0                 1           2             1    1     1       0.2589383370E-02       1    1    1         0.1343743923E+00      0.2759928672E+00
          0                 2           2             1    1     1      -0.2518765318E-03       1    1    1        -0.1343744849E-01      0.2758781070E-01
          0                 3           1             1    1     1       0.1715185685E-04       1    1    1         0.9406217209E-03      0.1930087800E-02

    ------------------------------------------------
       NWT REQUIRED            3 OUTER ITERATIONS 
       AND A TOTAL OF          5 INNER ITERATIONS.
    ------------------------------------------------

 NO OUTPUT CONTROL FOR STRESS PERIOD   10   TIME STEP   28
 
 SOLVING FOR HEAD 
                                                   Max.-Head-Change                         Max.-Flux-Residual
  Residual-Control   Outer-Iter.   Inner-Iter.     Column Row Layer    Maximum-Head-Change  Column Row Layer    Maximum-Flux-Residual          L2-NORM 
          0                 1           2             1    1     1       0.2587561568E-02       1    1    1         0.1342796734E+00      0.2750699055E+00
          0                 2           2             1    1     1      -0.2516993198E-03       1    1    1        -0.1342797659E-01      0.2749691271E-01
          0                 3           1             1    1     1       0.1713978911E-04       1    1    1         0.9399586804E-03      0.1923879057E-02

    ------------------------------------------------
       NWT REQUIRED            3 OUTER ITERATIONS 
       AND A TOTAL OF          5 INNER ITERATIONS.
    ------------------------------------------------

 NO OUTPUT CONTROL FOR STRESS PERIOD   10   TIME STEP   29
 
 SOLVING FOR HEAD 
                                                   Max.-Head-Change                         Max.-Flux-Residual
  Residual-Control   Outer-Iter.   Inner-Iter.     Column Row Layer    Maximum-Head-Change  Column Row Layer    Maximum-Flux-Residual          L2-NORM 
          0                 1           2             1    1     1       0.2585744836E-02       1    1    1         0.1341852158E+00      0.2742182056E+00
          0                 2           2             1    1     1      -0.2515226004E-03       1    1    1        -0.1341853078E-01      0.2741295392E-01
          0                 3           1             1    1     1       0.1712775522E-04       1    1    1         0.9392974671E-03      0.1918105503E-02

    ------------------------------------------------
       NWT REQUIRED            3 OUTER ITERATIONS 
       AND A TOTAL OF          5 INNER ITERATIONS.
    ------------------------------------------------

 NO OUTPUT CONTROL FOR STRESS PERIOD   10   TIME STEP   30



 STREAM LISTING     PERIOD     10   STEP       30

 LAYER ROW COL. STREAM  RCH.  FLOW INTO     FLOW TO   FLOW OUT OF   OVRLND.     DIRECT     STREAM       STREAM     STREAM     STREAM   STREAMBED  STREAMBED
                SEG.NO.  NO.  STRM. RCH.    AQUIFER    STRM. RCH.    RUNOFF     PRECIP       ET          HEAD       DEPTH      WIDTH   CONDCTNC.   GRADIENT

   1    1    1     1     1    3.5250E+01  2.8720E-01   3.4963E+01  0.000E+00  0.000E+00  0.000E+00  1.09434E+03  1.294E+00  1.486E+01  6.688E-02  1.431E+00
   1    2    2     1     2    3.4963E+01  4.4467E-01   3.4518E+01  0.000E+00  0.000E+00  0.000E+00  1.08935E+03  1.291E+00  1.480E+01  1.036E-01  1.430E+00
   1    3    3     1     3    3.4518E+01  3.7912E-01   3.4139E+01  0.000E+00  0.000E+00  0.000E+00  1.08371E+03  1.288E+00  1.474E+01  8.841E-02  1.429E+00
   1    3    4     1     4    3.4139E+01  3.4902E-01   3.3790E+01  0.000E+00  0.000E+00  0.000E+00  1.07869E+03  1.285E+00  1.468E+01  8.145E-02  1.428E+00
   1    4    5     2     1    3.1790E+01  3.4244E-01   3.1447E+01  0.000E+00  0.000E+00  0.000E+00  1.07332E+03  1.390E+00  1.200E+01  7.800E-02  1.463E+00
   1    5    6     2     2    3.1447E+01  2.6294E-01   3.1184E+01  0.000E+00  0.000E+00  0.000E+00  1.06789E+03  1.382E+00  1.200E+01  6.000E-02  1.461E+00
   1    6    6     2     3    3.1184E+01  2.6252E-01   3.0922E+01  0.000E+00  0.000E+00  0.000E+00  1.06317E+03  1.375E+00  1.200E+01  6.000E-02  1.458E+00
   1    7    6     2     4    3.0922E+01  2.6210E-01   3.0660E+01  0.000E+00  0.000E+00  0.000E+00  1.05844E+03  1.368E+00  1.200E+01  6.000E-02  1.456E+00
   1    8    6     2     5    3.0660E+01  2.6168E-01   3.0398E+01  0.000E+00  0.000E+00  0.000E+00  1.05372E+03  1.361E+00  1.200E+01  6.000E-02  1.454E+00
   1    3    5     3     1    2.0000E+00  2.8252E-01   1.7175E+00  0.000E+00  0.000E+00  0.000E+00  1.07555E+03  1.909E+00  9.636E+00  7.227E-02  1.955E+00
   1    3    6     3     2    1.7175E+00  2.4905E-01   1.4684E+00  0.000E+00  0.000E+00  0.000E+00  1.07264E+03  1.727E+00  8.909E+00  6.682E-02  1.864E+00
   1    3    7     3     3    1.4684E+00  1.9718E-01   1.2712E+00  0.000E+00  0.000E+00  0.000E+00  1.06987E+03  1.555E+00  8.218E+00  5.547E-02  1.777E+00
   1    4    8     3     4    1.2712E+00  2.2567E-01   1.0456E+00  0.000E+00  0.000E+00  0.000E+00  1.06682E+03  1.364E+00  7.455E+00  6.709E-02  1.682E+00
   1    5    8     3     5    1.0456E+00  1.5790E-01   8.8768E-01  0.000E+00  0.000E+00  0.000E+00  1.06362E+03  1.164E+00  6.655E+00  4.991E-02  1.582E+00
   1    6    8     3     6    8.8768E-01  5.5980E-02   8.3170E-01  0.000E+00  0.000E+00  0.000E+00  1.06158E+03  1.036E+00  6.145E+00  1.844E-02  1.518E+00
   1    5   10     4     1    1.0000E+01  9.0919E-02   9.9091E+00  0.000E+00  0.000E+00  0.000E+00  1.07836E+03  6.368E-01  1.000E+01  2.500E-02  1.212E+00
   1    5    9     4     2    9.9091E+00  1.8158E-01   9.7275E+00  0.000E+00  0.000E+00  0.000E+00  1.07154E+03  6.315E-01  1.000E+01  5.000E-02  1.211E+00
   1    6    8     4     3    9.7275E+00  1.2689E-01   9.6006E+00  0.000E+00  0.000E+00  0.000E+00  1.06381E+03  6.256E-01  1.000E+01  3.500E-02  1.209E+00
   1    6    8     5     1    1.0432E+01  2.2686E-01   1.0205E+01  0.000E+00  0.000E+00  0.000E+00  1.05868E+03  6.790E-01  1.542E+01  6.166E-02  1.226E+00
   1    7    7     5     2    1.0205E+01  2.7894E-01   9.9265E+00  0.000E+00  0.000E+00  0.000E+00  1.05417E+03  6.732E-01  1.519E+01  7.594E-02  1.224E+00
   1    8    7     5     3    9.9265E+00  1.9221E-01   9.7343E+00  0.000E+00  0.000E+00  0.000E+00  1.04992E+03  6.676E-01  1.497E+01  5.241E-02  1.223E+00
   1    8    6     5     4    9.7343E+00  1.3577E-01   9.5985E+00  0.000E+00  0.000E+00  0.000E+00  1.04691E+03  6.637E-01  1.482E+01  3.706E-02  1.221E+00
   1    9    6     6     1    3.9997E+01  2.7692E-01   3.9720E+01  0.000E+00  0.000E+00  0.000E+00  1.04434E+03  1.615E+00  1.200E+01  6.000E-02  1.538E+00
   1   10    7     6     2    3.9720E+01  2.7652E-01   3.9443E+01  0.000E+00  0.000E+00  0.000E+00  1.03979E+03  1.609E+00  1.200E+01  6.000E-02  1.536E+00
   1   11    7     6     3    3.9443E+01  2.7611E-01   3.9167E+01  0.000E+00  0.000E+00  0.000E+00  1.03524E+03  1.602E+00  1.200E+01  6.000E-02  1.534E+00
   1   12    7     6     4    3.9167E+01  2.7571E-01   3.8891E+01  0.000E+00  0.000E+00  0.000E+00  1.03069E+03  1.595E+00  1.200E+01  6.000E-02  1.532E+00
   1   13    7     6     5    3.8891E+01  7.4535E-03   3.8884E+01  0.000E+00  0.000E+00  0.000E+00  1.02750E+03  1.592E+00  1.200E+01  2.400E-02  1.035E-01
   1   14    9     7     1    1.5000E+02  1.3352E+00   1.4866E+02  0.000E+00  0.000E+00  0.000E+00  1.03987E+03  2.288E+00  5.529E+01  5.593E-01  7.957E-01
   1   13    8     7     2    1.4866E+02  1.8095E+00   1.4686E+02  0.000E+00  0.000E+00  0.000E+00  1.03478E+03  2.279E+00  5.526E+01  6.148E-01  9.811E-01
   1   13    7     7     3    1.4686E+02  1.3961E+00   1.4546E+02  0.000E+00  0.000E+00  0.000E+00  1.02969E+03  2.271E+00  5.522E+01  5.585E-01  8.333E-01
   1   13    6     8     1    1.8434E+02  8.9762E-01   1.8345E+02  0.000E+00  0.000E+00  0.000E+00  1.02492E+03  3.040E+00  4.409E+01  4.493E-01  6.660E-01
   1   13    5     8     2    1.8345E+02  1.2947E-01   1.8332E+02  0.000E+00  0.000E+00  0.000E+00  1.01866E+03  3.037E+00  4.404E+01  4.488E-01  9.616E-02
   1   13    4     8     3    1.8332E+02 -2.6214E+00   1.8594E+02  0.000E+00  0.000E+00  0.000E+00  1.01242E+03  3.045E+00  4.415E+01  4.499E+00 -1.942E-01
   1   13    3     8     4    1.8594E+02 -3.7131E+00   1.8965E+02  0.000E+00  0.000E+00  0.000E+00  1.00619E+03  3.064E+00  4.444E+01  4.528E+00 -2.733E-01
   1   13    2     8     5    1.8965E+02 -2.5994E+00   1.9225E+02  0.000E+00  0.000E+00  0.000E+00  9.99959E+02  3.084E+00  4.471E+01  4.556E+00 -1.902E-01
   1   13    1     8     6    1.9225E+02 -2.0093E+00   1.9426E+02  0.000E+00  0.000E+00  0.000E+00  9.94973E+02  3.098E+00  4.492E+01  2.746E+00 -2.439E-01
   1    8    6     9     1    0.0000E+00  0.0000E+00   0.0000E+00  0.000E+00  0.000E+00  0.000E+00  1.07875E+03  0.000E+00  4.000E+00  0.000E+00  1.000E+00
   1    8    5     9     2    0.0000E+00  0.0000E+00   0.0000E+00  0.000E+00  0.000E+00  0.000E+00  1.07825E+03  0.000E+00  4.000E+00  0.000E+00  1.000E+00





UNSATURATED ZONE PACKAGE VOLUMETRIC BUDGET FOR  TIME STEP    30 STRESS PERIOD   10
  ------------------------------------------------------------------------------



     CUMULATIVE VOLUMES      L**3       RATES FOR THIS TIME STEP      L**3/T
     ------------------                 ------------------------

           IN:                                      IN:
           ---                                      ---
        INFILTRATION =   104934594.6436          INFILTRATION =           4.4075

          OUT:                                     OUT:
          ----                                     ----
              UZF ET =    86146258.9653                UZF ET =           4.4075
        UZF RECHARGE =       73224.0000          UZF RECHARGE =       0.0000E+00

            IN - OUT =    18715111.6782              IN - OUT =       0.0000E+00

          STORAGE:                                 STORAGE:
          --------                                 --------
      STORAGE CHANGE =    18715111.4112        STORAGE CHANGE =      -9.2333E-15

 PERCENT DISCREPANCY IS DIFFERENCE BETWEEN IN-OUT MINUS CHANGE IN STORAGE
 DIVIDED BY THE AVERAGE OF IN AND OUT TIMES 100

 PERCENT DISCREPANCY =           0.00     PERCENT DISCREPANCY =           0.00






1
  VOLUMETRIC BUDGET FOR ENTIRE MODEL AT END OF TIME STEP   30, STRESS PERIOD  10
  ------------------------------------------------------------------------------

     CUMULATIVE VOLUMES      L**3       RATES FOR THIS TIME STEP      L**3/T
     ------------------                 ------------------------

           IN:                                      IN:
           ---                                      ---
               AG WELLS  =           0.0000                 AG WELLS  =           0.0000
        DIVERSION SEGMEN =      535838.9375          DIVERSION SEGMEN =           0.0000
    TS         GW IRRIGA =           0.0000      TS         GW IRRIGA =           0.0000
    TION         SW IRRI =           0.0000      TION         SW IRRI =           0.0000
    GATION      SYSTEM L =           0.0000      GATION      SYSTEM L =           0.0000
    OSSES GW      SYSTEM =           0.0000      OSSES GW      SYSTEM =           0.0000

                TOTAL IN =      535838.9375                  TOTAL IN =           0.0000

          OUT:                                     OUT:
          ----                                     ----
               AG WELLS  =           0.0000                 AG WELLS  =           0.0000
        DIVERSION SEGMEN =           0.0000          DIVERSION SEGMEN =           0.0000
    TS         GW IRRIGA =           0.0000      TS         GW IRRIGA =           0.0000
    TION         SW IRRI =      535849.6250      TION         SW IRRI =           0.0000
    GATION      SYSTEM L =           0.0000      GATION      SYSTEM L =           0.0000
    OSSES GW      SYSTEM =           0.0000      OSSES GW      SYSTEM =           0.0000

               TOTAL OUT =      535849.6250                 TOTAL OUT =           0.0000

                IN - OUT =         -10.6875                  IN - OUT =           0.0000

     PERCENT DISCREPANCY =          -0.00         PERCENT DISCREPANCY =           0.00



1
  VOLUMETRIC BUDGET FOR ENTIRE MODEL AT END OF TIME STEP   30, STRESS PERIOD  10
  ------------------------------------------------------------------------------

     CUMULATIVE VOLUMES      L**3       RATES FOR THIS TIME STEP      L**3/T
     ------------------                 ------------------------

           IN:                                      IN:
           ---                                      ---
             STORAGE     =    14616765.0000               STORAGE     =           0.3563
       CONSTANT HEAD     =           0.0000         CONSTANT HEAD     =           0.0000
     HEAD DEP BOUNDS     =     6787849.0000       HEAD DEP BOUNDS     =           0.2857
      STREAM LEAKAGE     =   292701536.0000        STREAM LEAKAGE     =          11.9338
        UZF RECHARGE     =       73223.9531          UZF RECHARGE     =           0.0000
               GW ET     =           0.0000                 GW ET     =           0.0000
     SURFACE LEAKAGE     =           0.0000       SURFACE LEAKAGE     =           0.0000
           AG WELLS      =           0.0000             AG WELLS      =           0.0000

                TOTAL IN =   314179360.0000                  TOTAL IN =          12.5757

          OUT:                                     OUT:
          ----                                     ----
             STORAGE     =    52646348.0000               STORAGE     =           1.2960
       CONSTANT HEAD     =           0.0000         CONSTANT HEAD     =           0.0000
     HEAD DEP BOUNDS     =     6967081.5000       HEAD DEP BOUNDS     =           0.2928
      STREAM LEAKAGE     =   247884272.0000        STREAM LEAKAGE     =          10.9431
        UZF RECHARGE     =           0.0000          UZF RECHARGE     =           0.0000
               GW ET     =     6691764.5000                 GW ET     =       4.4126E-02
     SURFACE LEAKAGE     =           0.0000       SURFACE LEAKAGE     =           0.0000
           AG WELLS      =           0.0000             AG WELLS      =           0.0000

               TOTAL OUT =   314189472.0000                 TOTAL OUT =          12.5760

                IN - OUT =      -10112.0000                  IN - OUT =      -2.6512E-04

     PERCENT DISCREPANCY =          -0.00         PERCENT DISCREPANCY =          -0.00






         TIME SUMMARY AT END OF TIME STEP   30 IN STRESS PERIOD   10
                    SECONDS     MINUTES      HOURS       DAYS        YEARS
                    -----------------------------------------------------------
   TIME STEP LENGTH  87667.      1461.1      24.352      1.0147     2.77799E-03
 STRESS PERIOD TIME 2.63000E+06  43833.      730.56      30.440     8.33397E-02
         TOTAL TIME 2.37564E+07 3.95940E+05  6599.0      274.96     0.75279    
1
1
                            STRESS PERIOD NO.   11, LENGTH =   2630000.    
                            -----------------------------------------------

                              NUMBER OF TIME STEPS =    30

                               MULTIPLIER FOR DELT =     1.000

                            INITIAL TIME STEP SIZE =   87666.66    

 REUSING NON-PARAMETER GHB CELLS FROM LAST STRESS PERIOD

      2 GHB CELLS

 REUSING STREAM SEGMENT DATA FROM LAST STRESS PERIOD



            AREAL INFILTRATION RATE
 READING ON UNIT   19 WITH FORMAT: (10F4.0)            

            1           2           3           4           5           6           7           8           9          10
 ........................................................................................................................
   1   1.2000E-09   0.000       0.000       0.000       0.000       0.000       0.000       0.000       0.000       0.000    
   2   2.1000E-09  2.0000E-09  8.0000E-10  8.5000E-09   0.000       0.000       0.000       0.000       0.000       0.000    
   3   5.0000E-10  1.1000E-09  8.8000E-09  5.5000E-09   0.000       0.000       0.000       0.000       0.000       0.000    
   4   8.5000E-09  1.1000E-09  1.1000E-09  1.1000E-09  2.0000E-09   0.000       0.000       0.000       0.000       0.000    
   5   8.5000E-09  1.1000E-09  1.1000E-09  1.1000E-09  1.1000E-09   0.000       0.000       0.000       0.000       0.000    
   6   8.5000E-09  5.2000E-09  2.1000E-09  1.1000E-09  1.5000E-09   0.000       0.000       0.000       0.000       0.000    
   7   8.5000E-09  5.2000E-09  2.1000E-09  1.2000E-09  2.0000E-09   0.000       0.000       0.000       0.000       0.000    
   8   5.0000E-10  5.2000E-09  2.1000E-09  1.2000E-09  5.0000E-09   0.000       0.000       0.000       0.000       0.000    
   9   5.0000E-10  5.2000E-09  2.1000E-09  1.2000E-09  5.0000E-09   0.000       0.000       0.000       0.000       0.000    
  10   5.0000E-10  5.2000E-09  2.1000E-09  1.2000E-09  5.8000E-09   0.000       0.000       0.000       0.000       0.000    
  11   1.0000E-10  1.1000E-09  1.1000E-09  1.2000E-09  5.0000E-09   0.000       0.000       0.000       0.000       0.000    
  12   1.1000E-09  1.1000E-09  1.1000E-09  1.1000E-09  2.0000E-09   0.000       0.000       0.000       0.000       0.000    
  13   1.1000E-09  2.2000E-09  2.2000E-09  2.1000E-09  1.0000E-09   0.000       0.000       0.000       0.000       0.000    
  14   2.0000E-10  5.5000E-09  5.5000E-09  5.2000E-09  1.0000E-09   0.000       0.000       0.000       0.000       0.000    
  15    0.000      8.8000E-09  8.8000E-09   0.000       0.000       0.000       0.000       0.000       0.000       0.000    

                  ET RATE =  5.000000E-09

 USING ET EXTINCTION DEPTH FROM PREVIOUS STRESS PERIOD. CURRENT PERIOD IS:      11

 USING EXTINCTION WATER CONTENT FROM PREVIOUS STRESS PERIOD. CURRENT PERIOD IS:      11

 USING AIR ENTRY PRESSURE FROM PREVIOUS STRESS PERIOD. CURRENT PERIOD IS:      11

 USING ROOT PRESSURE HEAD FROM PREVIOUS STRESS PERIOD. CURRENT PERIOD IS:      11

 USING ROOT ACTIVITY FROM PREVIOUS STRESS PERIOD. CURRENT PERIOD IS:      11

 PROCESSING AG STRESS PERIOD DATA

 READING AG STRESS PERIOD DATA

 READING IRRIGATION SEGMENT

 READING IRRIGATION WELL

 READING SUPPLEMENTAL WELL

 END PROCESSING AG STRESS PERIOD DATA OPTIONS
 
 SOLVING FOR HEAD 
                                                   Max.-Head-Change                         Max.-Flux-Residual
  Residual-Control   Outer-Iter.   Inner-Iter.     Column Row Layer    Maximum-Head-Change  Column Row Layer    Maximum-Flux-Residual          L2-NORM 
          0                 1           2             3    2     1       0.2517382473E-02       3    2    1         0.1314026825E+00      0.3063326423E+00
          0                 2           2             3    2     1      -0.2448728976E-03       3    2    1        -0.1314028357E-01      0.3036714189E-01
          0                 3           1             3    2     1       0.1667493701E-04       3    2    1         0.9198200951E-03      0.2101073248E-02

    ------------------------------------------------
       NWT REQUIRED            3 OUTER ITERATIONS 
       AND A TOTAL OF          5 INNER ITERATIONS.
    ------------------------------------------------

 NO OUTPUT CONTROL FOR STRESS PERIOD   11   TIME STEP    1
 
 SOLVING FOR HEAD 
                                                   Max.-Head-Change                         Max.-Flux-Residual
  Residual-Control   Outer-Iter.   Inner-Iter.     Column Row Layer    Maximum-Head-Change  Column Row Layer    Maximum-Flux-Residual          L2-NORM 
          0                 1           2             2   13     1      -0.3433995258E-02       2   13    1        -0.1935298966E+00      0.4012076245E+00
          0                 2           2             2   13     1       0.3218899480E-03       2   13    1         0.1864865111E-01      0.3929667537E-01
          0                 3           1             2   13     1      -0.2079904060E-04       2   13    1        -0.1238608406E-02      0.2684714985E-02

    ------------------------------------------------
       NWT REQUIRED            3 OUTER ITERATIONS 
       AND A TOTAL OF          5 INNER ITERATIONS.
    ------------------------------------------------

 NO OUTPUT CONTROL FOR STRESS PERIOD   11   TIME STEP    2
 
 SOLVING FOR HEAD 
                                                   Max.-Head-Change                         Max.-Flux-Residual
  Residual-Control   Outer-Iter.   Inner-Iter.     Column Row Layer    Maximum-Head-Change  Column Row Layer    Maximum-Flux-Residual          L2-NORM 
          0                 1           2             2   13     1      -0.3173301041E-02       2   13    1        -0.1788059284E+00      0.3810348945E+00
          0                 2           2             2   13     1       0.2975146628E-03       2   13    1         0.1723328608E-01      0.3746479447E-01
          0                 3           1             2   13     1      -0.1923641444E-04       2   13    1        -0.1145351613E-02      0.2562655184E-02

    ------------------------------------------------
       NWT REQUIRED            3 OUTER ITERATIONS 
       AND A TOTAL OF          5 INNER ITERATIONS.
    ------------------------------------------------

 NO OUTPUT CONTROL FOR STRESS PERIOD   11   TIME STEP    3
 
 SOLVING FOR HEAD 
                                                   Max.-Head-Change                         Max.-Flux-Residual
  Residual-Control   Outer-Iter.   Inner-Iter.     Column Row Layer    Maximum-Head-Change  Column Row Layer    Maximum-Flux-Residual          L2-NORM 
          0                 1           2             2   13     1      -0.2932858601E-02       2   13    1        -0.1652277284E+00      0.3630436217E+00
          0                 2           2             2   13     1       0.2750153301E-03       2   13    1         0.1592703631E-01      0.3573049385E-01
          0                 3           1             2   13     1      -0.1779582222E-04       2   13    1        -0.1059366039E-02      0.2448060118E-02

    ------------------------------------------------
       NWT REQUIRED            3 OUTER ITERATIONS 
       AND A TOTAL OF          5 INNER ITERATIONS.
    ------------------------------------------------

 NO OUTPUT CONTROL FOR STRESS PERIOD   11   TIME STEP    4
 
 SOLVING FOR HEAD 
                                                   Max.-Head-Change                         Max.-Flux-Residual
  Residual-Control   Outer-Iter.   Inner-Iter.     Column Row Layer    Maximum-Head-Change  Column Row Layer    Maximum-Flux-Residual          L2-NORM 
          0                 1           2             2   13     1      -0.2711131867E-02       2   13    1        -0.1527082982E+00      0.3469491262E+00
          0                 2           2             2   13     1       0.2542657185E-03       2   13    1         0.1472256373E-01      0.3418022602E-01
          0                 3           1             2   13     1      -0.1644919106E-04       2   13    1        -0.9789949045E-03      0.2345139410E-02

    ------------------------------------------------
       NWT REQUIRED            3 OUTER ITERATIONS 
       AND A TOTAL OF          5 INNER ITERATIONS.
    ------------------------------------------------

 NO OUTPUT CONTROL FOR STRESS PERIOD   11   TIME STEP    5
 
 SOLVING FOR HEAD 
                                                   Max.-Head-Change                         Max.-Flux-Residual
  Residual-Control   Outer-Iter.   Inner-Iter.     Column Row Layer    Maximum-Head-Change  Column Row Layer    Maximum-Flux-Residual          L2-NORM 
          0                 1           2             2   13     1      -0.2506613601E-02       2   13    1        -0.1411621645E+00      0.3325567661E+00
          0                 2           2             3    2     1      -0.2354669691E-03       2   13    1         0.1361079980E-01      0.3276279394E-01
          0                 3           1             3    2     1       0.1603442671E-04       2   13    1        -0.9045120796E-03      0.2250539334E-02

    ------------------------------------------------
       NWT REQUIRED            3 OUTER ITERATIONS 
       AND A TOTAL OF          5 INNER ITERATIONS.
    ------------------------------------------------

 NO OUTPUT CONTROL FOR STRESS PERIOD   11   TIME STEP    6
 
 SOLVING FOR HEAD 
                                                   Max.-Head-Change                         Max.-Flux-Residual
  Residual-Control   Outer-Iter.   Inner-Iter.     Column Row Layer    Maximum-Head-Change  Column Row Layer    Maximum-Flux-Residual          L2-NORM 
          0                 1           2             3    2     1       0.2402231475E-02       2   13    1        -0.1305100144E+00      0.3197193879E+00
          0                 2           2             3    2     1      -0.2336718448E-03       2   13    1         0.1258688724E-01      0.3156062453E-01
          0                 3           1             3    2     1       0.1591218544E-04       3    2    1         0.8791459950E-03      0.2171982182E-02

    ------------------------------------------------
       NWT REQUIRED            3 OUTER ITERATIONS 
       AND A TOTAL OF          5 INNER ITERATIONS.
    ------------------------------------------------

 NO OUTPUT CONTROL FOR STRESS PERIOD   11   TIME STEP    7
 
 SOLVING FOR HEAD 
                                                   Max.-Head-Change                         Max.-Flux-Residual
  Residual-Control   Outer-Iter.   Inner-Iter.     Column Row Layer    Maximum-Head-Change  Column Row Layer    Maximum-Flux-Residual          L2-NORM 
          0                 1           2             3    2     1       0.2384070534E-02       3    2    1         0.1246352509E+00      0.3082739382E+00
          0                 2           2             3    2     1      -0.2319052762E-03       3    2    1        -0.1246354008E-01      0.3045870069E-01
          0                 3           1             3    2     1       0.1579188868E-04       3    2    1         0.8724480386E-03      0.2097898054E-02

    ------------------------------------------------
       NWT REQUIRED            3 OUTER ITERATIONS 
       AND A TOTAL OF          5 INNER ITERATIONS.
    ------------------------------------------------

 NO OUTPUT CONTROL FOR STRESS PERIOD   11   TIME STEP    8
 
 SOLVING FOR HEAD 
                                                   Max.-Head-Change                         Max.-Flux-Residual
  Residual-Control   Outer-Iter.   Inner-Iter.     Column Row Layer    Maximum-Head-Change  Column Row Layer    Maximum-Flux-Residual          L2-NORM 
          0                 1           2             3    2     1       0.2366199027E-02       3    2    1         0.1236936249E+00      0.2980454757E+00
          0                 2           2             3    2     1      -0.2301668618E-03       3    2    1        -0.1236937720E-01      0.2947636023E-01
          0                 3           1             3    2     1       0.1567350921E-04       3    2    1         0.8658566308E-03      0.2033195104E-02

    ------------------------------------------------
       NWT REQUIRED            3 OUTER ITERATIONS 
       AND A TOTAL OF          5 INNER ITERATIONS.
    ------------------------------------------------

 NO OUTPUT CONTROL FOR STRESS PERIOD   11   TIME STEP    9
 
 SOLVING FOR HEAD 
                                                   Max.-Head-Change                         Max.-Flux-Residual
  Residual-Control   Outer-Iter.   Inner-Iter.     Column Row Layer    Maximum-Head-Change  Column Row Layer    Maximum-Flux-Residual          L2-NORM 
          0                 1           2             3    2     1       0.2348611822E-02       3    2    1         0.1227670056E+00      0.2889016389E+00
          0                 2           2             3    2     1      -0.2284561024E-03       3    2    1        -0.1227671503E-01      0.2859862693E-01
          0                 3           1             3    2     1       0.1555701270E-04       3    2    1         0.8593702752E-03      0.1975153043E-02

    ------------------------------------------------
       NWT REQUIRED            3 OUTER ITERATIONS 
       AND A TOTAL OF          5 INNER ITERATIONS.
    ------------------------------------------------

 NO OUTPUT CONTROL FOR STRESS PERIOD   11   TIME STEP   10
 
 SOLVING FOR HEAD 
                                                   Max.-Head-Change                         Max.-Flux-Residual
  Residual-Control   Outer-Iter.   Inner-Iter.     Column Row Layer    Maximum-Head-Change  Column Row Layer    Maximum-Flux-Residual          L2-NORM 
          0                 1           2             3    2     1       0.2331217723E-02       3    2    1         0.1218505967E+00      0.2807197438E+00
          0                 2           2             3    2     1      -0.2267641269E-03       3    2    1        -0.1218507386E-01      0.2781246473E-01
          0                 3           1             3    2     1       0.1544179566E-04       3    2    1         0.8529553972E-03      0.1923891149E-02

    ------------------------------------------------
       NWT REQUIRED            3 OUTER ITERATIONS 
       AND A TOTAL OF          5 INNER ITERATIONS.
    ------------------------------------------------

 NO OUTPUT CONTROL FOR STRESS PERIOD   11   TIME STEP   11
 
 SOLVING FOR HEAD 
                                                   Max.-Head-Change                         Max.-Flux-Residual
  Residual-Control   Outer-Iter.   Inner-Iter.     Column Row Layer    Maximum-Head-Change  Column Row Layer    Maximum-Flux-Residual          L2-NORM 
          0                 1           2             3    2     1       0.2314098737E-02       3    2    1         0.1209487305E+00      0.2734024076E+00
          0                 2           2             3    2     1      -0.2250989128E-03       3    2    1        -0.1209488701E-01      0.2710908137E-01
          0                 3           1             3    2     1       0.1532840100E-04       3    2    1         0.8466423118E-03      0.1876349234E-02

    ------------------------------------------------
       NWT REQUIRED            3 OUTER ITERATIONS 
       AND A TOTAL OF          5 INNER ITERATIONS.
    ------------------------------------------------

 NO OUTPUT CONTROL FOR STRESS PERIOD   11   TIME STEP   12
 
 SOLVING FOR HEAD 
                                                   Max.-Head-Change                         Max.-Flux-Residual
  Residual-Control   Outer-Iter.   Inner-Iter.     Column Row Layer    Maximum-Head-Change  Column Row Layer    Maximum-Flux-Residual          L2-NORM 
          0                 1           2             3    2     1       0.2297337982E-02       3    2    1         0.1200656592E+00      0.2668522058E+00
          0                 2           2             3    2     1      -0.2234685448E-03       3    2    1        -0.1200657965E-01      0.2633762168E-01
          0                 3           1             3    2     1       0.1521737899E-04       3    2    1         0.8404608035E-03      0.1867617794E-02

    ------------------------------------------------
       NWT REQUIRED            3 OUTER ITERATIONS 
       AND A TOTAL OF          5 INNER ITERATIONS.
    ------------------------------------------------

 NO OUTPUT CONTROL FOR STRESS PERIOD   11   TIME STEP   13
 
 SOLVING FOR HEAD 
                                                   Max.-Head-Change                         Max.-Flux-Residual
  Residual-Control   Outer-Iter.   Inner-Iter.     Column Row Layer    Maximum-Head-Change  Column Row Layer    Maximum-Flux-Residual          L2-NORM 
          0                 1           2             3    2     1       0.2280755253E-02       3    2    1         0.1191921006E+00      0.2609836454E+00
          0                 2           2             3    2     1      -0.2218554938E-03       3    2    1        -0.1191922354E-01      0.2591719656E-01
          0                 3           1             3    2     1       0.1510753632E-04       3    2    1         0.8343458687E-03      0.1797426417E-02

    ------------------------------------------------
       NWT REQUIRED            3 OUTER ITERATIONS 
       AND A TOTAL OF          5 INNER ITERATIONS.
    ------------------------------------------------

 NO OUTPUT CONTROL FOR STRESS PERIOD   11   TIME STEP   14
 
 SOLVING FOR HEAD 
                                                   Max.-Head-Change                         Max.-Flux-Residual
  Residual-Control   Outer-Iter.   Inner-Iter.     Column Row Layer    Maximum-Head-Change  Column Row Layer    Maximum-Flux-Residual          L2-NORM 
          0                 1           2             3    2     1       0.2264433624E-02       3    2    1         0.1183323032E+00      0.2557197215E+00
          0                 2           2             3    2     1      -0.2202678410E-03       3    2    1        -0.1183324356E-01      0.2541139460E-01
          0                 3           1             3    2     1       0.1499942326E-04       3    2    1         0.8283272854E-03      0.1764130643E-02

    ------------------------------------------------
       NWT REQUIRED            3 OUTER ITERATIONS 
       AND A TOTAL OF          5 INNER ITERATIONS.
    ------------------------------------------------

 NO OUTPUT CONTROL FOR STRESS PERIOD   11   TIME STEP   15
 
 SOLVING FOR HEAD 
                                                   Max.-Head-Change                         Max.-Flux-Residual
  Residual-Control   Outer-Iter.   Inner-Iter.     Column Row Layer    Maximum-Head-Change  Column Row Layer    Maximum-Flux-Residual          L2-NORM 
          0                 1           2             3    2     1       0.2248369125E-02       3    2    1         0.1174860434E+00      0.2509849522E+00
          0                 2           2             3    2     1      -0.2187052001E-03       3    2    1        -0.1174861738E-01      0.2495634541E-01
          0                 3           1             3    2     1       0.1489301330E-04       3    2    1         0.8224034382E-03      0.1733684102E-02

    ------------------------------------------------
       NWT REQUIRED            3 OUTER ITERATIONS 
       AND A TOTAL OF          5 INNER ITERATIONS.
    ------------------------------------------------

 NO OUTPUT CONTROL FOR STRESS PERIOD   11   TIME STEP   16
 
 SOLVING FOR HEAD 
                                                   Max.-Head-Change                         Max.-Flux-Residual
  Residual-Control   Outer-Iter.   Inner-Iter.     Column Row Layer    Maximum-Head-Change  Column Row Layer    Maximum-Flux-Residual          L2-NORM 
          0                 1           2             3    2     1       0.2232469972E-02       3    2    1         0.1166485847E+00      0.2467339629E+00
          0                 2           2             3    2     1      -0.2171586423E-03       3    2    1        -0.1166487127E-01      0.2454836823E-01
          0                 3           1             3    2     1       0.1478769842E-04       3    2    1         0.8165412077E-03      0.1707003505E-02

    ------------------------------------------------
       NWT REQUIRED            3 OUTER ITERATIONS 
       AND A TOTAL OF          5 INNER ITERATIONS.
    ------------------------------------------------

 NO OUTPUT CONTROL FOR STRESS PERIOD   11   TIME STEP   17
 
 SOLVING FOR HEAD 
                                                   Max.-Head-Change                         Max.-Flux-Residual
  Residual-Control   Outer-Iter.   Inner-Iter.     Column Row Layer    Maximum-Head-Change  Column Row Layer    Maximum-Flux-Residual          L2-NORM 
          0                 1           2             3    2     1       0.2216906680E-02       3    2    1         0.1158287609E+00      0.2429016022E+00
          0                 2           2             3    2     1      -0.2156447552E-03       3    2    1        -0.1158288868E-01      0.2417919423E-01
          0                 3           1             3    2     1       0.1468460828E-04       3    2    1         0.8108024159E-03      0.1682163836E-02

    ------------------------------------------------
       NWT REQUIRED            3 OUTER ITERATIONS 
       AND A TOTAL OF          5 INNER ITERATIONS.
    ------------------------------------------------

 NO OUTPUT CONTROL FOR STRESS PERIOD   11   TIME STEP   18
 
 SOLVING FOR HEAD 
                                                   Max.-Head-Change                         Max.-Flux-Residual
  Residual-Control   Outer-Iter.   Inner-Iter.     Column Row Layer    Maximum-Head-Change  Column Row Layer    Maximum-Flux-Residual          L2-NORM 
          0                 1           2             3    2     1       0.2201587444E-02       3    2    1         0.1150218201E+00      0.2394469065E+00
          0                 2           2             3    2     1      -0.2141546081E-03       3    2    1        -0.1150219437E-01      0.2384640307E-01
          0                 3           1             3    2     1       0.1458313533E-04       3    2    1         0.8051538388E-03      0.1658985661E-02

    ------------------------------------------------
       NWT REQUIRED            3 OUTER ITERATIONS 
       AND A TOTAL OF          5 INNER ITERATIONS.
    ------------------------------------------------

 NO OUTPUT CONTROL FOR STRESS PERIOD   11   TIME STEP   19
 
 SOLVING FOR HEAD 
                                                   Max.-Head-Change                         Max.-Flux-Residual
  Residual-Control   Outer-Iter.   Inner-Iter.     Column Row Layer    Maximum-Head-Change  Column Row Layer    Maximum-Flux-Residual          L2-NORM 
          0                 1           2             3    2     1       0.2186421396E-02       3    2    1         0.1142230024E+00      0.2363192725E+00
          0                 2           2             3    2     1      -0.2126793621E-03       3    2    1        -0.1142231240E-01      0.2354482926E-01
          0                 3           1             3    2     1       0.1448267628E-04       3    2    1         0.7995620865E-03      0.1640250288E-02

    ------------------------------------------------
       NWT REQUIRED            3 OUTER ITERATIONS 
       AND A TOTAL OF          5 INNER ITERATIONS.
    ------------------------------------------------

 NO OUTPUT CONTROL FOR STRESS PERIOD   11   TIME STEP   20
 
 SOLVING FOR HEAD 
                                                   Max.-Head-Change                         Max.-Flux-Residual
  Residual-Control   Outer-Iter.   Inner-Iter.     Column Row Layer    Maximum-Head-Change  Column Row Layer    Maximum-Flux-Residual          L2-NORM 
          0                 1           2             3    2     1       0.2171491653E-02       3    2    1         0.1134366583E+00      0.2334896871E+00
          0                 2           2             3    2     1      -0.2112271022E-03       3    2    1        -0.1134367779E-01      0.2318658931E-01
          0                 3           1             3    2     1       0.1438378235E-04       3    2    1         0.7940576621E-03      0.1758940016E-02

    ------------------------------------------------
       NWT REQUIRED            3 OUTER ITERATIONS 
       AND A TOTAL OF          5 INNER ITERATIONS.
    ------------------------------------------------

 NO OUTPUT CONTROL FOR STRESS PERIOD   11   TIME STEP   21
 
 SOLVING FOR HEAD 
                                                   Max.-Head-Change                         Max.-Flux-Residual
  Residual-Control   Outer-Iter.   Inner-Iter.     Column Row Layer    Maximum-Head-Change  Column Row Layer    Maximum-Flux-Residual          L2-NORM 
          0                 1           2             3    2     1       0.2156794037E-02       3    2    1         0.1126625663E+00      0.2309192593E+00
          0                 2           2             3    2     1      -0.2097974219E-03       3    2    1        -0.1126626838E-01      0.2302484014E-01
          0                 3           1             3    2     1       0.1428642727E-04       3    2    1         0.7886390127E-03      0.1606399242E-02

    ------------------------------------------------
       NWT REQUIRED            3 OUTER ITERATIONS 
       AND A TOTAL OF          5 INNER ITERATIONS.
    ------------------------------------------------

 NO OUTPUT CONTROL FOR STRESS PERIOD   11   TIME STEP   22
 
 SOLVING FOR HEAD 
                                                   Max.-Head-Change                         Max.-Flux-Residual
  Residual-Control   Outer-Iter.   Inner-Iter.     Column Row Layer    Maximum-Head-Change  Column Row Layer    Maximum-Flux-Residual          L2-NORM 
          0                 1           2             3    2     1       0.2142410979E-02       3    2    1         0.1119050413E+00      0.2285820128E+00
          0                 2           2             3    2     1      -0.2083983394E-03       3    2    1        -0.1119051568E-01      0.2279845963E-01
          0                 3           1             3    2     1       0.1419115516E-04       3    2    1         0.7833363186E-03      0.1590088726E-02

    ------------------------------------------------
       NWT REQUIRED            3 OUTER ITERATIONS 
       AND A TOTAL OF          5 INNER ITERATIONS.
    ------------------------------------------------

 NO OUTPUT CONTROL FOR STRESS PERIOD   11   TIME STEP   23
 
 SOLVING FOR HEAD 
                                                   Max.-Head-Change                         Max.-Flux-Residual
  Residual-Control   Outer-Iter.   Inner-Iter.     Column Row Layer    Maximum-Head-Change  Column Row Layer    Maximum-Flux-Residual          L2-NORM 
          0                 1           2             3    2     1       0.2128077963E-02       3    2    1         0.1111502317E+00      0.2265338155E+00
          0                 2           2             3    2     1      -0.2070041251E-03       3    2    1        -0.1111503455E-01      0.2269914630E-01
          0                 3           1             3    2     1       0.1409621391E-04       3    2    1         0.7780526325E-03      0.1583081695E-02

    ------------------------------------------------
       NWT REQUIRED            3 OUTER ITERATIONS 
       AND A TOTAL OF          5 INNER ITERATIONS.
    ------------------------------------------------

 NO OUTPUT CONTROL FOR STRESS PERIOD   11   TIME STEP   24
 
 SOLVING FOR HEAD 
                                                   Max.-Head-Change                         Max.-Flux-Residual
  Residual-Control   Outer-Iter.   Inner-Iter.     Column Row Layer    Maximum-Head-Change  Column Row Layer    Maximum-Flux-Residual          L2-NORM 
          0                 1           2             3    2     1       0.2114053429E-02       3    2    1         0.1104116108E+00      0.2244980578E+00
          0                 2           2             3    2     1      -0.2056399175E-03       3    2    1        -0.1104117225E-01      0.2240259762E-01
          0                 3           1             3    2     1       0.1400331705E-04       3    2    1         0.7728822978E-03      0.1563939052E-02

    ------------------------------------------------
       NWT REQUIRED            3 OUTER ITERATIONS 
       AND A TOTAL OF          5 INNER ITERATIONS.
    ------------------------------------------------

 NO OUTPUT CONTROL FOR STRESS PERIOD   11   TIME STEP   25
 
 SOLVING FOR HEAD 
                                                   Max.-Head-Change                         Max.-Flux-Residual
  Residual-Control   Outer-Iter.   Inner-Iter.     Column Row Layer    Maximum-Head-Change  Column Row Layer    Maximum-Flux-Residual          L2-NORM 
          0                 1           2             3    2     1       0.2100245397E-02       3    2    1         0.1096844531E+00      0.2227123535E+00
          0                 2           2             3    2     1      -0.2042967700E-03       3    2    1        -0.1096845631E-01      0.2222902657E-01
          0                 3           1             3    2     1       0.1391185395E-04       3    2    1         0.7677921843E-03      0.1551884388E-02

    ------------------------------------------------
       NWT REQUIRED            3 OUTER ITERATIONS 
       AND A TOTAL OF          5 INNER ITERATIONS.
    ------------------------------------------------

 NO OUTPUT CONTROL FOR STRESS PERIOD   11   TIME STEP   26
 
 SOLVING FOR HEAD 
                                                   Max.-Head-Change                         Max.-Flux-Residual
  Residual-Control   Outer-Iter.   Inner-Iter.     Column Row Layer    Maximum-Head-Change  Column Row Layer    Maximum-Flux-Residual          L2-NORM 
          0                 1           2             3    2     1       0.2086649651E-02       3    2    1         0.1089685208E+00      0.2210766288E+00
          0                 2           2             3    2     1      -0.2029742722E-03       3    2    1        -0.1089686291E-01      0.2207067639E-01
          0                 3           1             3    2     1       0.1382179646E-04       3    2    1         0.7627806351E-03      0.1541579678E-02

    ------------------------------------------------
       NWT REQUIRED            3 OUTER ITERATIONS 
       AND A TOTAL OF          5 INNER ITERATIONS.
    ------------------------------------------------

 NO OUTPUT CONTROL FOR STRESS PERIOD   11   TIME STEP   27
 
 SOLVING FOR HEAD 
                                                   Max.-Head-Change                         Max.-Flux-Residual
  Residual-Control   Outer-Iter.   Inner-Iter.     Column Row Layer    Maximum-Head-Change  Column Row Layer    Maximum-Flux-Residual          L2-NORM 
          0                 1           2             3    2     1       0.2073176959E-02       3    2    1         0.1082590636E+00      0.2195669283E+00
          0                 2           2             3    2     1      -0.2016637441E-03       3    2    1        -0.1082591701E-01      0.2192383812E-01
          0                 3           1             3    2     1       0.1373255454E-04       3    2    1         0.7578144244E-03      0.1531819648E-02

    ------------------------------------------------
       NWT REQUIRED            3 OUTER ITERATIONS 
       AND A TOTAL OF          5 INNER ITERATIONS.
    ------------------------------------------------

 NO OUTPUT CONTROL FOR STRESS PERIOD   11   TIME STEP   28
 
 SOLVING FOR HEAD 
                                                   Max.-Head-Change                         Max.-Flux-Residual
  Residual-Control   Outer-Iter.   Inner-Iter.     Column Row Layer    Maximum-Head-Change  Column Row Layer    Maximum-Flux-Residual          L2-NORM 
          0                 1           2             3    2     1       0.2059996899E-02       3    2    1         0.1075650499E+00      0.2181727367E+00
          0                 2           2             3    2     1      -0.2003816803E-03       3    2    1        -0.1075651545E-01      0.2178810527E-01
          0                 3           1             3    2     1       0.1364525051E-04       3    2    1         0.7529562953E-03      0.1522534822E-02

    ------------------------------------------------
       NWT REQUIRED            3 OUTER ITERATIONS 
       AND A TOTAL OF          5 INNER ITERATIONS.
    ------------------------------------------------

 NO OUTPUT CONTROL FOR STRESS PERIOD   11   TIME STEP   29
 
 SOLVING FOR HEAD 
                                                   Max.-Head-Change                         Max.-Flux-Residual
  Residual-Control   Outer-Iter.   Inner-Iter.     Column Row Layer    Maximum-Head-Change  Column Row Layer    Maximum-Flux-Residual          L2-NORM 
          0                 1           2             3    2     1       0.2046932564E-02       3    2    1         0.1068771455E+00      0.2168831840E+00
          0                 2           2             3    2     1      -0.1991108743E-03       3    2    1        -0.1068772484E-01      0.2166252967E-01
          0                 3           1             3    2     1       0.1355871353E-04       3    2    1         0.7481409580E-03      0.1514164013E-02

    ------------------------------------------------
       NWT REQUIRED            3 OUTER ITERATIONS 
       AND A TOTAL OF          5 INNER ITERATIONS.
    ------------------------------------------------

 NO OUTPUT CONTROL FOR STRESS PERIOD   11   TIME STEP   30



 STREAM LISTING     PERIOD     11   STEP       30

 LAYER ROW COL. STREAM  RCH.  FLOW INTO     FLOW TO   FLOW OUT OF   OVRLND.     DIRECT     STREAM       STREAM     STREAM     STREAM   STREAMBED  STREAMBED
                SEG.NO.  NO.  STRM. RCH.    AQUIFER    STRM. RCH.    RUNOFF     PRECIP       ET          HEAD       DEPTH      WIDTH   CONDCTNC.   GRADIENT

   1    1    1     1     1    2.6250E+01  2.5084E-01   2.5999E+01  0.000E+00  0.000E+00  0.000E+00  1.09424E+03  1.197E+00  1.328E+01  5.977E-02  1.399E+00
   1    2    2     1     2    2.5999E+01  3.8795E-01   2.5611E+01  0.000E+00  0.000E+00  0.000E+00  1.08925E+03  1.192E+00  1.322E+01  9.255E-02  1.397E+00
   1    3    3     1     3    2.5611E+01  3.3035E-01   2.5281E+01  0.000E+00  0.000E+00  0.000E+00  1.08361E+03  1.187E+00  1.315E+01  7.890E-02  1.396E+00
   1    3    4     1     4    2.5281E+01  3.0378E-01   2.4977E+01  0.000E+00  0.000E+00  0.000E+00  1.07859E+03  1.182E+00  1.309E+01  7.264E-02  1.394E+00
   1    4    5     2     1    2.2977E+01  3.2316E-01   2.2654E+01  0.000E+00  0.000E+00  0.000E+00  1.07308E+03  1.143E+00  1.200E+01  7.800E-02  1.381E+00
   1    5    6     2     2    2.2654E+01  2.4807E-01   2.2406E+01  0.000E+00  0.000E+00  0.000E+00  1.06764E+03  1.134E+00  1.200E+01  6.000E-02  1.378E+00
   1    6    6     2     3    2.2406E+01  2.4762E-01   2.2158E+01  0.000E+00  0.000E+00  0.000E+00  1.06292E+03  1.127E+00  1.200E+01  6.000E-02  1.376E+00
   1    7    6     2     4    2.2158E+01  2.4717E-01   2.1911E+01  0.000E+00  0.000E+00  0.000E+00  1.05819E+03  1.119E+00  1.200E+01  6.000E-02  1.373E+00
   1    8    6     2     5    2.1911E+01  2.4671E-01   2.1664E+01  0.000E+00  0.000E+00  0.000E+00  1.05347E+03  1.112E+00  1.200E+01  6.000E-02  1.371E+00
   1    3    5     3     1    2.0000E+00  2.8252E-01   1.7175E+00  0.000E+00  0.000E+00  0.000E+00  1.07555E+03  1.909E+00  9.636E+00  7.227E-02  1.955E+00
   1    3    6     3     2    1.7175E+00  2.4905E-01   1.4684E+00  0.000E+00  0.000E+00  0.000E+00  1.07264E+03  1.727E+00  8.909E+00  6.682E-02  1.864E+00
   1    3    7     3     3    1.4684E+00  1.9718E-01   1.2712E+00  0.000E+00  0.000E+00  0.000E+00  1.06987E+03  1.555E+00  8.218E+00  5.547E-02  1.777E+00
   1    4    8     3     4    1.2712E+00  2.2567E-01   1.0456E+00  0.000E+00  0.000E+00  0.000E+00  1.06682E+03  1.364E+00  7.455E+00  6.709E-02  1.682E+00
   1    5    8     3     5    1.0456E+00  1.5790E-01   8.8768E-01  0.000E+00  0.000E+00  0.000E+00  1.06362E+03  1.164E+00  6.655E+00  4.991E-02  1.582E+00
   1    6    8     3     6    8.8768E-01  5.5980E-02   8.3170E-01  0.000E+00  0.000E+00  0.000E+00  1.06158E+03  1.036E+00  6.145E+00  1.844E-02  1.518E+00
   1    5   10     4     1    1.0000E+01  9.0919E-02   9.9091E+00  0.000E+00  0.000E+00  0.000E+00  1.07836E+03  6.368E-01  1.000E+01  2.500E-02  1.212E+00
   1    5    9     4     2    9.9091E+00  1.8158E-01   9.7275E+00  0.000E+00  0.000E+00  0.000E+00  1.07154E+03  6.315E-01  1.000E+01  5.000E-02  1.211E+00
   1    6    8     4     3    9.7275E+00  1.2689E-01   9.6006E+00  0.000E+00  0.000E+00  0.000E+00  1.06381E+03  6.256E-01  1.000E+01  3.500E-02  1.209E+00
   1    6    8     5     1    1.0432E+01  2.2686E-01   1.0205E+01  0.000E+00  0.000E+00  0.000E+00  1.05868E+03  6.790E-01  1.542E+01  6.166E-02  1.226E+00
   1    7    7     5     2    1.0205E+01  2.7894E-01   9.9265E+00  0.000E+00  0.000E+00  0.000E+00  1.05417E+03  6.732E-01  1.519E+01  7.594E-02  1.224E+00
   1    8    7     5     3    9.9265E+00  1.9221E-01   9.7343E+00  0.000E+00  0.000E+00  0.000E+00  1.04992E+03  6.676E-01  1.497E+01  5.241E-02  1.223E+00
   1    8    6     5     4    9.7343E+00  1.3577E-01   9.5985E+00  0.000E+00  0.000E+00  0.000E+00  1.04691E+03  6.637E-01  1.482E+01  3.706E-02  1.221E+00
   1    9    6     6     1    3.1263E+01  2.6357E-01   3.0999E+01  0.000E+00  0.000E+00  0.000E+00  1.04412E+03  1.393E+00  1.200E+01  6.000E-02  1.464E+00
   1   10    7     6     2    3.0999E+01  2.6314E-01   3.0736E+01  0.000E+00  0.000E+00  0.000E+00  1.03957E+03  1.386E+00  1.200E+01  6.000E-02  1.462E+00
   1   11    7     6     3    3.0736E+01  2.6272E-01   3.0473E+01  0.000E+00  0.000E+00  0.000E+00  1.03502E+03  1.379E+00  1.200E+01  6.000E-02  1.460E+00
   1   12    7     6     4    3.0473E+01  2.6229E-01   3.0211E+01  0.000E+00  0.000E+00  0.000E+00  1.03046E+03  1.372E+00  1.200E+01  6.000E-02  1.457E+00
   1   13    7     6     5    3.0211E+01  2.2111E-03   3.0209E+01  0.000E+00  0.000E+00  0.000E+00  1.02728E+03  1.368E+00  1.200E+01  2.400E-02  3.071E-02
   1   14    9     7     1    1.5000E+02  1.3348E+00   1.4867E+02  0.000E+00  0.000E+00  0.000E+00  1.03987E+03  2.288E+00  5.529E+01  5.593E-01  7.955E-01
   1   13    8     7     2    1.4867E+02  1.8090E+00   1.4686E+02  0.000E+00  0.000E+00  0.000E+00  1.03478E+03  2.279E+00  5.526E+01  6.148E-01  9.808E-01
   1   13    7     7     3    1.4686E+02  1.3991E+00   1.4546E+02  0.000E+00  0.000E+00  0.000E+00  1.02969E+03  2.271E+00  5.522E+01  5.585E-01  8.351E-01
   1   13    6     8     1    1.7567E+02  8.6628E-01   1.7480E+02  0.000E+00  0.000E+00  0.000E+00  1.02486E+03  2.986E+00  4.330E+01  4.412E-01  6.545E-01
   1   13    5     8     2    1.7480E+02  1.1131E-01   1.7469E+02  0.000E+00  0.000E+00  0.000E+00  1.01861E+03  2.983E+00  4.325E+01  4.407E-01  8.418E-02
   1   13    4     8     3    1.7469E+02 -2.6777E+00   1.7737E+02  0.000E+00  0.000E+00  0.000E+00  1.01237E+03  2.991E+00  4.337E+01  4.420E+00 -2.020E-01
   1   13    3     8     4    1.7737E+02 -3.7661E+00   1.8113E+02  0.000E+00  0.000E+00  0.000E+00  1.00614E+03  3.011E+00  4.367E+01  4.450E+00 -2.821E-01
   1   13    2     8     5    1.8113E+02 -2.6131E+00   1.8375E+02  0.000E+00  0.000E+00  0.000E+00  9.99906E+02  3.031E+00  4.396E+01  4.479E+00 -1.945E-01
   1   13    1     8     6    1.8375E+02 -2.0114E+00   1.8576E+02  0.000E+00  0.000E+00  0.000E+00  9.94921E+02  3.046E+00  4.416E+01  2.700E+00 -2.483E-01
   1    8    6     9     1    0.0000E+00  0.0000E+00   0.0000E+00  0.000E+00  0.000E+00  0.000E+00  1.07875E+03  0.000E+00  4.000E+00  0.000E+00  1.000E+00
   1    8    5     9     2    0.0000E+00  0.0000E+00   0.0000E+00  0.000E+00  0.000E+00  0.000E+00  1.07825E+03  0.000E+00  4.000E+00  0.000E+00  1.000E+00





UNSATURATED ZONE PACKAGE VOLUMETRIC BUDGET FOR  TIME STEP    30 STRESS PERIOD   11
  ------------------------------------------------------------------------------



     CUMULATIVE VOLUMES      L**3       RATES FOR THIS TIME STEP      L**3/T
     ------------------                 ------------------------

           IN:                                      IN:
           ---                                      ---
        INFILTRATION =   116526319.2017          INFILTRATION =           4.4075

          OUT:                                     OUT:
          ----                                     ----
              UZF ET =    96087658.6016                UZF ET =           3.7800
        UZF RECHARGE =       73224.0000          UZF RECHARGE =       0.0000E+00

            IN - OUT =    20365436.6001              IN - OUT =           0.6275

          STORAGE:                                 STORAGE:
          --------                                 --------
      STORAGE CHANGE =    20365436.3498        STORAGE CHANGE =           0.6275

 PERCENT DISCREPANCY IS DIFFERENCE BETWEEN IN-OUT MINUS CHANGE IN STORAGE
 DIVIDED BY THE AVERAGE OF IN AND OUT TIMES 100

 PERCENT DISCREPANCY =           0.00     PERCENT DISCREPANCY =           0.00






1
  VOLUMETRIC BUDGET FOR ENTIRE MODEL AT END OF TIME STEP   30, STRESS PERIOD  11
  ------------------------------------------------------------------------------

     CUMULATIVE VOLUMES      L**3       RATES FOR THIS TIME STEP      L**3/T
     ------------------                 ------------------------

           IN:                                      IN:
           ---                                      ---
               AG WELLS  =           0.0000                 AG WELLS  =           0.0000
        DIVERSION SEGMEN =      535838.9375          DIVERSION SEGMEN =           0.0000
    TS         GW IRRIGA =           0.0000      TS         GW IRRIGA =           0.0000
    TION         SW IRRI =           0.0000      TION         SW IRRI =           0.0000
    GATION      SYSTEM L =           0.0000      GATION      SYSTEM L =           0.0000
    OSSES GW      SYSTEM =           0.0000      OSSES GW      SYSTEM =           0.0000

                TOTAL IN =      535838.9375                  TOTAL IN =           0.0000

          OUT:                                     OUT:
          ----                                     ----
               AG WELLS  =           0.0000                 AG WELLS  =           0.0000
        DIVERSION SEGMEN =           0.0000          DIVERSION SEGMEN =           0.0000
    TS         GW IRRIGA =           0.0000      TS         GW IRRIGA =           0.0000
    TION         SW IRRI =      535849.6250      TION         SW IRRI =           0.0000
    GATION      SYSTEM L =           0.0000      GATION      SYSTEM L =           0.0000
    OSSES GW      SYSTEM =           0.0000      OSSES GW      SYSTEM =           0.0000

               TOTAL OUT =      535849.6250                 TOTAL OUT =           0.0000

                IN - OUT =         -10.6875                  IN - OUT =           0.0000

     PERCENT DISCREPANCY =          -0.00         PERCENT DISCREPANCY =           0.00



1
  VOLUMETRIC BUDGET FOR ENTIRE MODEL AT END OF TIME STEP   30, STRESS PERIOD  11
  ------------------------------------------------------------------------------

     CUMULATIVE VOLUMES      L**3       RATES FOR THIS TIME STEP      L**3/T
     ------------------                 ------------------------

           IN:                                      IN:
           ---                                      ---
             STORAGE     =    16316581.0000               STORAGE     =           0.4481
       CONSTANT HEAD     =           0.0000         CONSTANT HEAD     =           0.0000
     HEAD DEP BOUNDS     =     7539244.5000       HEAD DEP BOUNDS     =           0.2857
      STREAM LEAKAGE     =   323103904.0000        STREAM LEAKAGE     =          11.5615
        UZF RECHARGE     =       73223.9531          UZF RECHARGE     =           0.0000
               GW ET     =           0.0000                 GW ET     =           0.0000
     SURFACE LEAKAGE     =           0.0000       SURFACE LEAKAGE     =           0.0000
           AG WELLS      =           0.0000             AG WELLS      =           0.0000

                TOTAL IN =   347032960.0000                  TOTAL IN =          12.2953

          OUT:                                     OUT:
          ----                                     ----
             STORAGE     =    55207108.0000               STORAGE     =           0.9358
       CONSTANT HEAD     =           0.0000         CONSTANT HEAD     =           0.0000
     HEAD DEP BOUNDS     =     7734658.0000       HEAD DEP BOUNDS     =           0.2913
      STREAM LEAKAGE     =   277409440.0000        STREAM LEAKAGE     =          11.0684
        UZF RECHARGE     =           0.0000          UZF RECHARGE     =           0.0000
               GW ET     =     6692063.5000                 GW ET     =           0.0000
     SURFACE LEAKAGE     =           0.0000       SURFACE LEAKAGE     =           0.0000
           AG WELLS      =           0.0000             AG WELLS      =           0.0000

               TOTAL OUT =   347043264.0000                 TOTAL OUT =          12.2955

                IN - OUT =      -10304.0000                  IN - OUT =      -1.3638E-04

     PERCENT DISCREPANCY =          -0.00         PERCENT DISCREPANCY =          -0.00






         TIME SUMMARY AT END OF TIME STEP   30 IN STRESS PERIOD   11
                    SECONDS     MINUTES      HOURS       DAYS        YEARS
                    -----------------------------------------------------------
   TIME STEP LENGTH  87667.      1461.1      24.352      1.0147     2.77799E-03
 STRESS PERIOD TIME 2.63000E+06  43833.      730.56      30.440     8.33397E-02
         TOTAL TIME 2.63864E+07 4.39773E+05  7329.5      305.40     0.83613    
1
1
                            STRESS PERIOD NO.   12, LENGTH =   2630000.    
                            -----------------------------------------------

                              NUMBER OF TIME STEPS =    30

                               MULTIPLIER FOR DELT =     1.000

                            INITIAL TIME STEP SIZE =   87666.66    

 REUSING NON-PARAMETER GHB CELLS FROM LAST STRESS PERIOD

      2 GHB CELLS

 REUSING STREAM SEGMENT DATA FROM LAST STRESS PERIOD



            AREAL INFILTRATION RATE
 READING ON UNIT   19 WITH FORMAT: (10F4.0)            

            1           2           3           4           5           6           7           8           9          10
 ........................................................................................................................
   1   1.2000E-09   0.000       0.000       0.000       0.000       0.000       0.000       0.000       0.000       0.000    
   2   2.1000E-09  2.0000E-09  8.0000E-10  8.5000E-09   0.000       0.000       0.000       0.000       0.000       0.000    
   3   5.0000E-10  1.1000E-09  8.8000E-09  5.5000E-09   0.000       0.000       0.000       0.000       0.000       0.000    
   4   8.5000E-09  1.1000E-09  1.1000E-09  1.1000E-09  2.0000E-09   0.000       0.000       0.000       0.000       0.000    
   5   8.5000E-09  1.1000E-09  1.1000E-09  1.1000E-09  1.1000E-09   0.000       0.000       0.000       0.000       0.000    
   6   8.5000E-09  5.2000E-09  2.1000E-09  1.1000E-09  1.5000E-09   0.000       0.000       0.000       0.000       0.000    
   7   8.5000E-09  5.2000E-09  2.1000E-09  1.2000E-09  2.0000E-09   0.000       0.000       0.000       0.000       0.000    
   8   5.0000E-10  5.2000E-09  2.1000E-09  1.2000E-09  5.0000E-09   0.000       0.000       0.000       0.000       0.000    
   9   5.0000E-10  5.2000E-09  2.1000E-09  1.2000E-09  5.0000E-09   0.000       0.000       0.000       0.000       0.000    
  10   5.0000E-10  5.2000E-09  2.1000E-09  1.2000E-09  5.8000E-09   0.000       0.000       0.000       0.000       0.000    
  11   1.0000E-10  1.1000E-09  1.1000E-09  1.2000E-09  5.0000E-09   0.000       0.000       0.000       0.000       0.000    
  12   1.1000E-09  1.1000E-09  1.1000E-09  1.1000E-09  2.0000E-09   0.000       0.000       0.000       0.000       0.000    
  13   1.1000E-09  2.2000E-09  2.2000E-09  2.1000E-09  1.0000E-09   0.000       0.000       0.000       0.000       0.000    
  14   2.0000E-10  5.5000E-09  5.5000E-09  5.2000E-09  1.0000E-09   0.000       0.000       0.000       0.000       0.000    
  15    0.000      8.8000E-09  8.8000E-09   0.000       0.000       0.000       0.000       0.000       0.000       0.000    

                  ET RATE =  5.000000E-10

 USING ET EXTINCTION DEPTH FROM PREVIOUS STRESS PERIOD. CURRENT PERIOD IS:      12

 USING EXTINCTION WATER CONTENT FROM PREVIOUS STRESS PERIOD. CURRENT PERIOD IS:      12

 USING AIR ENTRY PRESSURE FROM PREVIOUS STRESS PERIOD. CURRENT PERIOD IS:      12

 USING ROOT PRESSURE HEAD FROM PREVIOUS STRESS PERIOD. CURRENT PERIOD IS:      12

 USING ROOT ACTIVITY FROM PREVIOUS STRESS PERIOD. CURRENT PERIOD IS:      12

 PROCESSING AG STRESS PERIOD DATA

 READING AG STRESS PERIOD DATA

 READING IRRIGATION SEGMENT

 READING IRRIGATION WELL

 READING SUPPLEMENTAL WELL

 END PROCESSING AG STRESS PERIOD DATA OPTIONS
 
 SOLVING FOR HEAD 
                                                   Max.-Head-Change                         Max.-Flux-Residual
  Residual-Control   Outer-Iter.   Inner-Iter.     Column Row Layer    Maximum-Head-Change  Column Row Layer    Maximum-Flux-Residual          L2-NORM 
          0                 1           2             2   13     1      -0.2430073975E-02       2   13    1        -0.1365792712E+00      0.3197493141E+00
          0                 2           2             2   13     1       0.2315038346E-03       4   13    1         0.1359323293E-01      0.3399474937E-01
          0                 3           1             7   13     1       0.2139953757E-04       7   13    1         0.1196457036E-02      0.2488432819E-02

    ------------------------------------------------
       NWT REQUIRED            3 OUTER ITERATIONS 
       AND A TOTAL OF          5 INNER ITERATIONS.
    ------------------------------------------------

 NO OUTPUT CONTROL FOR STRESS PERIOD   12   TIME STEP    1
 
 SOLVING FOR HEAD 
                                                   Max.-Head-Change                         Max.-Flux-Residual
  Residual-Control   Outer-Iter.   Inner-Iter.     Column Row Layer    Maximum-Head-Change  Column Row Layer    Maximum-Flux-Residual          L2-NORM 
          0                 1           2             2   13     1      -0.2619186681E-02       2   13    1        -0.1471879724E+00      0.3362235020E+00
          0                 2           2             2   13     1       0.2442821118E-03       4   13    1         0.1421478184E-01      0.3302834297E-01
          0                 3           1             4   13     1      -0.1625193904E-04       4   13    1        -0.9809191197E-03      0.2258793232E-02

    ------------------------------------------------
       NWT REQUIRED            3 OUTER ITERATIONS 
       AND A TOTAL OF          5 INNER ITERATIONS.
    ------------------------------------------------

 NO OUTPUT CONTROL FOR STRESS PERIOD   12   TIME STEP    2
 
 SOLVING FOR HEAD 
                                                   Max.-Head-Change                         Max.-Flux-Residual
  Residual-Control   Outer-Iter.   Inner-Iter.     Column Row Layer    Maximum-Head-Change  Column Row Layer    Maximum-Flux-Residual          L2-NORM 
          0                 1           2             2   13     1      -0.2428338086E-02       2   13    1        -0.1364419370E+00      0.3199645945E+00
          0                 2           2             2   13     1       0.2264757294E-03       2   13    1         0.1308007312E-01      0.3145850787E-01
          0                 3           1             4   13     1      -0.1479206422E-04       4   13    1        -0.8921218587E-03      0.2151936916E-02

    ------------------------------------------------
       NWT REQUIRED            3 OUTER ITERATIONS 
       AND A TOTAL OF          5 INNER ITERATIONS.
    ------------------------------------------------

 NO OUTPUT CONTROL FOR STRESS PERIOD   12   TIME STEP    3
 
 SOLVING FOR HEAD 
                                                   Max.-Head-Change                         Max.-Flux-Residual
  Residual-Control   Outer-Iter.   Inner-Iter.     Column Row Layer    Maximum-Head-Change  Column Row Layer    Maximum-Flux-Residual          L2-NORM 
          0                 1           2             2   13     1      -0.2251756219E-02       2   13    1        -0.1265002212E+00      0.3053262187E+00
          0                 2           2             2   13     1       0.2100513551E-03       2   13    1         0.1212950962E-01      0.3004693718E-01
          0                 3           1             4   13     1      -0.1348805721E-04       4   13    1        -0.8128244754E-03      0.2058415470E-02

    ------------------------------------------------
       NWT REQUIRED            3 OUTER ITERATIONS 
       AND A TOTAL OF          5 INNER ITERATIONS.
    ------------------------------------------------

 NO OUTPUT CONTROL FOR STRESS PERIOD   12   TIME STEP    4
 
 SOLVING FOR HEAD 
                                                   Max.-Head-Change                         Max.-Flux-Residual
  Residual-Control   Outer-Iter.   Inner-Iter.     Column Row Layer    Maximum-Head-Change  Column Row Layer    Maximum-Flux-Residual          L2-NORM 
          0                 1           2             2   13     1      -0.2088238863E-02       2   13    1        -0.1172949424E+00      0.2921442286E+00
          0                 2           2             2   13     1       0.1948209198E-03       2   13    1         0.1124811409E-01      0.2877651918E-01
          0                 3           1             3    2     1       0.1288427991E-04       2   13    1        -0.7420950242E-03      0.1973849040E-02

    ------------------------------------------------
       NWT REQUIRED            3 OUTER ITERATIONS 
       AND A TOTAL OF          5 INNER ITERATIONS.
    ------------------------------------------------

 NO OUTPUT CONTROL FOR STRESS PERIOD   12   TIME STEP    5
 
 SOLVING FOR HEAD 
                                                   Max.-Head-Change                         Max.-Flux-Residual
  Residual-Control   Outer-Iter.   Inner-Iter.     Column Row Layer    Maximum-Head-Change  Column Row Layer    Maximum-Flux-Residual          L2-NORM 
          0                 1           2             2   13     1      -0.1936990014E-02       2   13    1        -0.1087812276E+00      0.2802779283E+00
          0                 2           2             3    2     1      -0.1872847718E-03       2   13    1         0.1043335322E-01      0.2763306959E-01
          0                 3           1             3    2     1       0.1275339769E-04       3    2    1         0.7064127030E-03      0.1898373525E-02

    ------------------------------------------------
       NWT REQUIRED            3 OUTER ITERATIONS 
       AND A TOTAL OF          5 INNER ITERATIONS.
    ------------------------------------------------

 NO OUTPUT CONTROL FOR STRESS PERIOD   12   TIME STEP    6
 
 SOLVING FOR HEAD 
                                                   Max.-Head-Change                         Max.-Flux-Residual
  Residual-Control   Outer-Iter.   Inner-Iter.     Column Row Layer    Maximum-Head-Change  Column Row Layer    Maximum-Flux-Residual          L2-NORM 
          0                 1           2             3    2     1       0.1906013193E-02       2   13    1        -0.1008995004E+00      0.2695916198E+00
          0                 2           2             3    2     1      -0.1854032552E-03       3    2    1        -0.9989611220E-02      0.2660526158E-01
          0                 3           1             3    2     1       0.1262527344E-04       3    2    1         0.6992730061E-03      0.1829662056E-02

    ------------------------------------------------
       NWT REQUIRED            3 OUTER ITERATIONS 
       AND A TOTAL OF          5 INNER ITERATIONS.
    ------------------------------------------------

 NO OUTPUT CONTROL FOR STRESS PERIOD   12   TIME STEP    7
 
 SOLVING FOR HEAD 
                                                   Max.-Head-Change                         Max.-Flux-Residual
  Residual-Control   Outer-Iter.   Inner-Iter.     Column Row Layer    Maximum-Head-Change  Column Row Layer    Maximum-Flux-Residual          L2-NORM 
          0                 1           2             3    2     1       0.1886907109E-02       3    2    1         0.9888858402E-01      0.2599598854E+00
          0                 2           2             3    2     1      -0.1835447510E-03       3    2    1        -0.9888868016E-02      0.2567851587E-01
          0                 3           1             3    2     1       0.1249871619E-04       3    2    1         0.6922209716E-03      0.1767783573E-02

    ------------------------------------------------
       NWT REQUIRED            3 OUTER ITERATIONS 
       AND A TOTAL OF          5 INNER ITERATIONS.
    ------------------------------------------------

 NO OUTPUT CONTROL FOR STRESS PERIOD   12   TIME STEP    8
 
 SOLVING FOR HEAD 
                                                   Max.-Head-Change                         Max.-Flux-Residual
  Residual-Control   Outer-Iter.   Inner-Iter.     Column Row Layer    Maximum-Head-Change  Column Row Layer    Maximum-Flux-Residual          L2-NORM 
          0                 1           2             3    2     1       0.1868119252E-02       3    2    1         0.9789795279E-01      0.2512806473E+00
          0                 2           2             3    2     1      -0.1817172025E-03       3    2    1        -0.9789804723E-02      0.2484269180E-01
          0                 3           1             3    2     1       0.1237426723E-04       3    2    1         0.6852865533E-03      0.1712075633E-02

    ------------------------------------------------
       NWT REQUIRED            3 OUTER ITERATIONS 
       AND A TOTAL OF          5 INNER ITERATIONS.
    ------------------------------------------------

 NO OUTPUT CONTROL FOR STRESS PERIOD   12   TIME STEP    9
 
 SOLVING FOR HEAD 
                                                   Max.-Head-Change                         Max.-Flux-Residual
  Residual-Control   Outer-Iter.   Inner-Iter.     Column Row Layer    Maximum-Head-Change  Column Row Layer    Maximum-Flux-Residual          L2-NORM 
          0                 1           2             3    2     1       0.1849645020E-02       3    2    1         0.9692382128E-01      0.2434482949E+00
          0                 2           2             3    2     1      -0.1799201606E-03       3    2    1        -0.9692391387E-02      0.2408972184E-01
          0                 3           1             3    2     1       0.1225189532E-04       3    2    1         0.6784676097E-03      0.1663233833E-02

    ------------------------------------------------
       NWT REQUIRED            3 OUTER ITERATIONS 
       AND A TOTAL OF          5 INNER ITERATIONS.
    ------------------------------------------------

 NO OUTPUT CONTROL FOR STRESS PERIOD   12   TIME STEP   10
 
 SOLVING FOR HEAD 
                                                   Max.-Head-Change                         Max.-Flux-Residual
  Residual-Control   Outer-Iter.   Inner-Iter.     Column Row Layer    Maximum-Head-Change  Column Row Layer    Maximum-Flux-Residual          L2-NORM 
          0                 1           2             3    2     1       0.1831477754E-02       3    2    1         0.9596595093E-01      0.2363788863E+00
          0                 2           2             3    2     1      -0.1781529784E-03       3    2    1        -0.9596604166E-02      0.2340905997E-01
          0                 3           1             3    2     1       0.1213155690E-04       3    2    1         0.6717625062E-03      0.1617235666E-02

    ------------------------------------------------
       NWT REQUIRED            3 OUTER ITERATIONS 
       AND A TOTAL OF          5 INNER ITERATIONS.
    ------------------------------------------------

 NO OUTPUT CONTROL FOR STRESS PERIOD   12   TIME STEP   11
 
 SOLVING FOR HEAD 
                                                   Max.-Head-Change                         Max.-Flux-Residual
  Residual-Control   Outer-Iter.   Inner-Iter.     Column Row Layer    Maximum-Head-Change  Column Row Layer    Maximum-Flux-Residual          L2-NORM 
          0                 1           2             3    2     1       0.1813526475E-02       3    2    1         0.9501946395E-01      0.2299892871E+00
          0                 2           2             3    2     1      -0.1764068057E-03       3    2    1        -0.9501955300E-02      0.2279428258E-01
          0                 3           1             3    2     1       0.1201264869E-04       3    2    1         0.6651370651E-03      0.1576513488E-02

    ------------------------------------------------
       NWT REQUIRED            3 OUTER ITERATIONS 
       AND A TOTAL OF          5 INNER ITERATIONS.
    ------------------------------------------------

 NO OUTPUT CONTROL FOR STRESS PERIOD   12   TIME STEP   12
 
 SOLVING FOR HEAD 
                                                   Max.-Head-Change                         Max.-Flux-Residual
  Residual-Control   Outer-Iter.   Inner-Iter.     Column Row Layer    Maximum-Head-Change  Column Row Layer    Maximum-Flux-Residual          L2-NORM 
          0                 1           2             3    2     1       0.1795959770E-02       3    2    1         0.9409324071E-01      0.2242008106E+00
          0                 2           2             3    2     1      -0.1746980418E-03       3    2    1        -0.9409332800E-02      0.2223695124E-01
          0                 3           1             3    2     1       0.1189628852E-04       3    2    1         0.6586535021E-03      0.1539448357E-02

    ------------------------------------------------
       NWT REQUIRED            3 OUTER ITERATIONS 
       AND A TOTAL OF          5 INNER ITERATIONS.
    ------------------------------------------------

 NO OUTPUT CONTROL FOR STRESS PERIOD   12   TIME STEP   13
 
 SOLVING FOR HEAD 
                                                   Max.-Head-Change                         Max.-Flux-Residual
  Residual-Control   Outer-Iter.   Inner-Iter.     Column Row Layer    Maximum-Head-Change  Column Row Layer    Maximum-Flux-Residual          L2-NORM 
          0                 1           2             3    2     1       0.1778597280E-02       3    2    1         0.9317789204E-01      0.2189566924E+00
          0                 2           2             3    2     1      -0.1730091424E-03       3    2    1        -0.9317797777E-02      0.2173275826E-01
          0                 3           1             3    2     1       0.1178128045E-04       3    2    1         0.6522460351E-03      0.1506769515E-02

    ------------------------------------------------
       NWT REQUIRED            3 OUTER ITERATIONS 
       AND A TOTAL OF          5 INNER ITERATIONS.
    ------------------------------------------------

 NO OUTPUT CONTROL FOR STRESS PERIOD   12   TIME STEP   14
 
 SOLVING FOR HEAD 
                                                   Max.-Head-Change                         Max.-Flux-Residual
  Residual-Control   Outer-Iter.   Inner-Iter.     Column Row Layer    Maximum-Head-Change  Column Row Layer    Maximum-Flux-Residual          L2-NORM 
          0                 1           2             3    2     1       0.1761522691E-02       3    2    1         0.9227766431E-01      0.2141917808E+00
          0                 2           2             3    2     1      -0.1713482482E-03       3    2    1        -0.9227774827E-02      0.2127352479E-01
          0                 3           1             3    2     1       0.1166818021E-04       3    2    1         0.6459444472E-03      0.1476142408E-02

    ------------------------------------------------
       NWT REQUIRED            3 OUTER ITERATIONS 
       AND A TOTAL OF          5 INNER ITERATIONS.
    ------------------------------------------------

 NO OUTPUT CONTROL FOR STRESS PERIOD   12   TIME STEP   15
 
 SOLVING FOR HEAD 
                                                   Max.-Head-Change                         Max.-Flux-Residual
  Residual-Control   Outer-Iter.   Inner-Iter.     Column Row Layer    Maximum-Head-Change  Column Row Layer    Maximum-Flux-Residual          L2-NORM 
          0                 1           2             3    2     1       0.1744730474E-02       3    2    1         0.9139236402E-01      0.2098594821E+00
          0                 2           2             3    2     1      -0.1697148206E-03       3    2    1        -0.9139244624E-02      0.2085573354E-01
          0                 3           1             3    2     1       0.1155695017E-04       3    2    1         0.6397473335E-03      0.1447605248E-02

    ------------------------------------------------
       NWT REQUIRED            3 OUTER ITERATIONS 
       AND A TOTAL OF          5 INNER ITERATIONS.
    ------------------------------------------------

 NO OUTPUT CONTROL FOR STRESS PERIOD   12   TIME STEP   16
 
 SOLVING FOR HEAD 
                                                   Max.-Head-Change                         Max.-Flux-Residual
  Residual-Control   Outer-Iter.   Inner-Iter.     Column Row Layer    Maximum-Head-Change  Column Row Layer    Maximum-Flux-Residual          L2-NORM 
          0                 1           2             3    2     1       0.1728217086E-02       3    2    1         0.9052170439E-01      0.2059101448E+00
          0                 2           2             3    2     1      -0.1681085158E-03       3    2    1        -0.9052178517E-02      0.2047369616E-01
          0                 3           1             3    2     1       0.1144756617E-04       3    2    1         0.6336526753E-03      0.1421997245E-02

    ------------------------------------------------
       NWT REQUIRED            3 OUTER ITERATIONS 
       AND A TOTAL OF          5 INNER ITERATIONS.
    ------------------------------------------------

 NO OUTPUT CONTROL FOR STRESS PERIOD   12   TIME STEP   17
 
 SOLVING FOR HEAD 
                                                   Max.-Head-Change                         Max.-Flux-Residual
  Residual-Control   Outer-Iter.   Inner-Iter.     Column Row Layer    Maximum-Head-Change  Column Row Layer    Maximum-Flux-Residual          L2-NORM 
          0                 1           2             3    2     1       0.1711976479E-02       3    2    1         0.8966550177E-01      0.2023049361E+00
          0                 2           2             3    2     1      -0.1665287458E-03       3    2    1        -0.8966558111E-02      0.2012605045E-01
          0                 3           1             3    2     1       0.1133999012E-04       3    2    1         0.6276592643E-03      0.1399299678E-02

    ------------------------------------------------
       NWT REQUIRED            3 OUTER ITERATIONS 
       AND A TOTAL OF          5 INNER ITERATIONS.
    ------------------------------------------------

 NO OUTPUT CONTROL FOR STRESS PERIOD   12   TIME STEP   18
 
 SOLVING FOR HEAD 
                                                   Max.-Head-Change                         Max.-Flux-Residual
  Residual-Control   Outer-Iter.   Inner-Iter.     Column Row Layer    Maximum-Head-Change  Column Row Layer    Maximum-Flux-Residual          L2-NORM 
          0                 1           2             3    2     1       0.1696003795E-02       3    2    1         0.8882344259E-01      0.1990050153E+00
          0                 2           2             3    2     1      -0.1649750373E-03       3    2    1        -0.8882352049E-02      0.1980757930E-01
          0                 3           1             3    2     1       0.1123418865E-04       3    2    1         0.6217648540E-03      0.1377978330E-02

    ------------------------------------------------
       NWT REQUIRED            3 OUTER ITERATIONS 
       AND A TOTAL OF          5 INNER ITERATIONS.
    ------------------------------------------------

 NO OUTPUT CONTROL FOR STRESS PERIOD   12   TIME STEP   19
 
 SOLVING FOR HEAD 
                                                   Max.-Head-Change                         Max.-Flux-Residual
  Residual-Control   Outer-Iter.   Inner-Iter.     Column Row Layer    Maximum-Head-Change  Column Row Layer    Maximum-Flux-Residual          L2-NORM 
          0                 1           2             3    2     1       0.1680294921E-02       3    2    1         0.8799527494E-01      0.1959738546E+00
          0                 2           2             3    2     1      -0.1634469900E-03       3    2    1        -0.8799535153E-02      0.1951458199E-01
          0                 3           1             3    2     1       0.1113013406E-04       3    2    1         0.6159676577E-03      0.1358564415E-02

    ------------------------------------------------
       NWT REQUIRED            3 OUTER ITERATIONS 
       AND A TOTAL OF          5 INNER ITERATIONS.
    ------------------------------------------------

 NO OUTPUT CONTROL FOR STRESS PERIOD   12   TIME STEP   20
 
 SOLVING FOR HEAD 
                                                   Max.-Head-Change                         Max.-Flux-Residual
  Residual-Control   Outer-Iter.   Inner-Iter.     Column Row Layer    Maximum-Head-Change  Column Row Layer    Maximum-Flux-Residual          L2-NORM 
          0                 1           2             3    2     1       0.1664757917E-02       3    2    1         0.8717625249E-01      0.1931851807E+00
          0                 2           2             3    2     1      -0.1619356609E-03       3    2    1        -0.8717632753E-02      0.1924683427E-01
          0                 3           1             3    2     1       0.1102721811E-04       3    2    1         0.6102344890E-03      0.1343346049E-02

    ------------------------------------------------
       NWT REQUIRED            3 OUTER ITERATIONS 
       AND A TOTAL OF          5 INNER ITERATIONS.
    ------------------------------------------------

 NO OUTPUT CONTROL FOR STRESS PERIOD   12   TIME STEP   21
 
 SOLVING FOR HEAD 
                                                   Max.-Head-Change                         Max.-Flux-Residual
  Residual-Control   Outer-Iter.   Inner-Iter.     Column Row Layer    Maximum-Head-Change  Column Row Layer    Maximum-Flux-Residual          L2-NORM 
          0                 1           2             3    2     1       0.1649563250E-02       3    2    1         0.8637520744E-01      0.1906245434E+00
          0                 2           2             3    2     1      -0.1604576318E-03       3    2    1        -0.8637528100E-02      0.1899971765E-01
          0                 3           1             3    2     1       0.1092656996E-04       3    2    1         0.6046271641E-03      0.1323288609E-02

    ------------------------------------------------
       NWT REQUIRED            3 OUTER ITERATIONS 
       AND A TOTAL OF          5 INNER ITERATIONS.
    ------------------------------------------------

 NO OUTPUT CONTROL FOR STRESS PERIOD   12   TIME STEP   22
 
 SOLVING FOR HEAD 
                                                   Max.-Head-Change                         Max.-Flux-Residual
  Residual-Control   Outer-Iter.   Inner-Iter.     Column Row Layer    Maximum-Head-Change  Column Row Layer    Maximum-Flux-Residual          L2-NORM 
          0                 1           2             3    2     1       0.1634531714E-02       3    2    1         0.8558284607E-01      0.1882486128E+00
          0                 2           2             3    2     1      -0.1589954710E-03       3    2    1        -0.8558291828E-02      0.1876548762E-01
          0                 3           1             3    2     1       0.1082700223E-04       3    2    1         0.5990806137E-03      0.1308804591E-02

    ------------------------------------------------
       NWT REQUIRED            3 OUTER ITERATIONS 
       AND A TOTAL OF          5 INNER ITERATIONS.
    ------------------------------------------------

 NO OUTPUT CONTROL FOR STRESS PERIOD   12   TIME STEP   23
 
 SOLVING FOR HEAD 
                                                   Max.-Head-Change                         Max.-Flux-Residual
  Residual-Control   Outer-Iter.   Inner-Iter.     Column Row Layer    Maximum-Head-Change  Column Row Layer    Maximum-Flux-Residual          L2-NORM 
          0                 1           2             3    2     1       0.1619746968E-02       3    2    1         0.8480347591E-01      0.1860509284E+00
          0                 2           2             3    2     1      -0.1575573164E-03       3    2    1        -0.8480354667E-02      0.1855194520E-01
          0                 3           1             3    2     1       0.1072906919E-04       3    2    1         0.5936250219E-03      0.1293405929E-02

    ------------------------------------------------
       NWT REQUIRED            3 OUTER ITERATIONS 
       AND A TOTAL OF          5 INNER ITERATIONS.
    ------------------------------------------------

 NO OUTPUT CONTROL FOR STRESS PERIOD   12   TIME STEP   24
 
 SOLVING FOR HEAD 
                                                   Max.-Head-Change                         Max.-Flux-Residual
  Residual-Control   Outer-Iter.   Inner-Iter.     Column Row Layer    Maximum-Head-Change  Column Row Layer    Maximum-Flux-Residual          L2-NORM 
          0                 1           2             2    1     1       0.1615315343E-02       3    2    1         0.8403690161E-01      0.1840103370E+00
          0                 2           2             2    1     1      -0.1571262319E-03       3    2    1        -0.8403697133E-02      0.1835306112E-01
          0                 3           1             2    1     1       0.1069971413E-04       3    2    1         0.5882589936E-03      0.1280616840E-02

    ------------------------------------------------
       NWT REQUIRED            3 OUTER ITERATIONS 
       AND A TOTAL OF          5 INNER ITERATIONS.
    ------------------------------------------------

 NO OUTPUT CONTROL FOR STRESS PERIOD   12   TIME STEP   25
 
 SOLVING FOR HEAD 
                                                   Max.-Head-Change                         Max.-Flux-Residual
  Residual-Control   Outer-Iter.   Inner-Iter.     Column Row Layer    Maximum-Head-Change  Column Row Layer    Maximum-Flux-Residual          L2-NORM 
          0                 1           2             2    1     1       0.1613333611E-02       2    1    1         0.8376614292E-01      0.1821160256E+00
          0                 2           2             2    1     1      -0.1569334626E-03       2    1    1        -0.8376620674E-02      0.1816866914E-01
          0                 3           1             2    1     1       0.1068658776E-04       2    1    1         0.5863636480E-03      0.1268129469E-02

    ------------------------------------------------
       NWT REQUIRED            3 OUTER ITERATIONS 
       AND A TOTAL OF          5 INNER ITERATIONS.
    ------------------------------------------------

 NO OUTPUT CONTROL FOR STRESS PERIOD   12   TIME STEP   26
 
 SOLVING FOR HEAD 
                                                   Max.-Head-Change                         Max.-Flux-Residual
  Residual-Control   Outer-Iter.   Inner-Iter.     Column Row Layer    Maximum-Head-Change  Column Row Layer    Maximum-Flux-Residual          L2-NORM 
          0                 1           2             2    1     1       0.1611389030E-02       2    1    1         0.8366449370E-01      0.1803475841E+00
          0                 2           2             2    1     1      -0.1567443072E-03       2    1    1        -0.8366455726E-02      0.1799629488E-01
          0                 3           1             2    1     1       0.1067370634E-04       2    1    1         0.5856520836E-03      0.1256370691E-02

    ------------------------------------------------
       NWT REQUIRED            3 OUTER ITERATIONS 
       AND A TOTAL OF          5 INNER ITERATIONS.
    ------------------------------------------------

 NO OUTPUT CONTROL FOR STRESS PERIOD   12   TIME STEP   27
 
 SOLVING FOR HEAD 
                                                   Max.-Head-Change                         Max.-Flux-Residual
  Residual-Control   Outer-Iter.   Inner-Iter.     Column Row Layer    Maximum-Head-Change  Column Row Layer    Maximum-Flux-Residual          L2-NORM 
          0                 1           2             2    1     1       0.1609438828E-02       2    1    1         0.8356256813E-01      0.1786897128E+00
          0                 2           2             2    1     1      -0.1565546051E-03       2    1    1        -0.8356263120E-02      0.1783383152E-01
          0                 3           1             2    1     1       0.1066078848E-04       2    1    1         0.5849386065E-03      0.1244640758E-02

    ------------------------------------------------
       NWT REQUIRED            3 OUTER ITERATIONS 
       AND A TOTAL OF          5 INNER ITERATIONS.
    ------------------------------------------------

 NO OUTPUT CONTROL FOR STRESS PERIOD   12   TIME STEP   28
 
 SOLVING FOR HEAD 
                                                   Max.-Head-Change                         Max.-Flux-Residual
  Residual-Control   Outer-Iter.   Inner-Iter.     Column Row Layer    Maximum-Head-Change  Column Row Layer    Maximum-Flux-Residual          L2-NORM 
          0                 1           2             2    1     1       0.1607482935E-02       2    1    1         0.8346035099E-01      0.1771361688E+00
          0                 2           2             2    1     1      -0.1563643496E-03       2    1    1        -0.8346041355E-02      0.1768234601E-01
          0                 3           1             2    1     1       0.1064783299E-04       2    1    1         0.5842230956E-03      0.1234932714E-02

    ------------------------------------------------
       NWT REQUIRED            3 OUTER ITERATIONS 
       AND A TOTAL OF          5 INNER ITERATIONS.
    ------------------------------------------------

 NO OUTPUT CONTROL FOR STRESS PERIOD   12   TIME STEP   29
 
 SOLVING FOR HEAD 
                                                   Max.-Head-Change                         Max.-Flux-Residual
  Residual-Control   Outer-Iter.   Inner-Iter.     Column Row Layer    Maximum-Head-Change  Column Row Layer    Maximum-Flux-Residual          L2-NORM 
          0                 1           2             2    1     1       0.1605410738E-02       2    1    1         0.8336004160E-01      0.1794793795E+00
          0                 2           2             2    1     1      -0.1561627856E-03       2    1    1        -0.8336010698E-02      0.1789686482E-01
          0                 3           1             2    1     1       0.1063410712E-04       2    1    1         0.5835209542E-03      0.1248028624E-02

    ------------------------------------------------
       NWT REQUIRED            3 OUTER ITERATIONS 
       AND A TOTAL OF          5 INNER ITERATIONS.
    ------------------------------------------------

 NO OUTPUT CONTROL FOR STRESS PERIOD   12   TIME STEP   30



 STREAM LISTING     PERIOD     12   STEP       30

 LAYER ROW COL. STREAM  RCH.  FLOW INTO     FLOW TO   FLOW OUT OF   OVRLND.     DIRECT     STREAM       STREAM     STREAM     STREAM   STREAMBED  STREAMBED
                SEG.NO.  NO.  STRM. RCH.    AQUIFER    STRM. RCH.    RUNOFF     PRECIP       ET          HEAD       DEPTH      WIDTH   CONDCTNC.   GRADIENT

   1    1    1     1     1    1.9081E+01  2.1479E-01   1.8866E+01  0.000E+00  0.000E+00  0.000E+00  1.09413E+03  1.083E+00  1.169E+01  5.260E-02  1.361E+00
   1    2    2     1     2    1.8866E+01  3.3136E-01   1.8535E+01  0.000E+00  0.000E+00  0.000E+00  1.08914E+03  1.079E+00  1.161E+01  8.124E-02  1.360E+00
   1    3    3     1     3    1.8535E+01  2.8134E-01   1.8253E+01  0.000E+00  0.000E+00  0.000E+00  1.08349E+03  1.074E+00  1.151E+01  6.906E-02  1.358E+00
   1    3    4     1     4    1.8253E+01  2.5804E-01   1.7995E+01  0.000E+00  0.000E+00  0.000E+00  1.07848E+03  1.069E+00  1.143E+01  6.342E-02  1.356E+00
   1    4    5     2     1    1.5995E+01  3.0564E-01   1.5690E+01  0.000E+00  0.000E+00  0.000E+00  1.07285E+03  9.184E-01  1.200E+01  7.800E-02  1.306E+00
   1    5    6     2     2    1.5690E+01  2.3454E-01   1.5455E+01  0.000E+00  0.000E+00  0.000E+00  1.06742E+03  9.090E-01  1.200E+01  6.000E-02  1.303E+00
   1    6    6     2     3    1.5455E+01  2.3405E-01   1.5221E+01  0.000E+00  0.000E+00  0.000E+00  1.06269E+03  9.008E-01  1.200E+01  6.000E-02  1.300E+00
   1    7    6     2     4    1.5221E+01  2.3355E-01   1.4987E+01  0.000E+00  0.000E+00  0.000E+00  1.05797E+03  8.925E-01  1.200E+01  6.000E-02  1.297E+00
   1    8    6     2     5    1.4987E+01  2.3305E-01   1.4754E+01  0.000E+00  0.000E+00  0.000E+00  1.05324E+03  8.842E-01  1.200E+01  6.000E-02  1.295E+00
   1    3    5     3     1    2.0000E+00  2.8252E-01   1.7175E+00  0.000E+00  0.000E+00  0.000E+00  1.07555E+03  1.909E+00  9.636E+00  7.227E-02  1.955E+00
   1    3    6     3     2    1.7175E+00  2.4905E-01   1.4684E+00  0.000E+00  0.000E+00  0.000E+00  1.07264E+03  1.727E+00  8.909E+00  6.682E-02  1.864E+00
   1    3    7     3     3    1.4684E+00  1.9718E-01   1.2712E+00  0.000E+00  0.000E+00  0.000E+00  1.06987E+03  1.555E+00  8.218E+00  5.547E-02  1.777E+00
   1    4    8     3     4    1.2712E+00  2.2567E-01   1.0456E+00  0.000E+00  0.000E+00  0.000E+00  1.06682E+03  1.364E+00  7.455E+00  6.709E-02  1.682E+00
   1    5    8     3     5    1.0456E+00  1.5790E-01   8.8768E-01  0.000E+00  0.000E+00  0.000E+00  1.06362E+03  1.164E+00  6.655E+00  4.991E-02  1.582E+00
   1    6    8     3     6    8.8768E-01  5.5980E-02   8.3170E-01  0.000E+00  0.000E+00  0.000E+00  1.06158E+03  1.036E+00  6.145E+00  1.844E-02  1.518E+00
   1    5   10     4     1    1.0000E+01  9.0919E-02   9.9091E+00  0.000E+00  0.000E+00  0.000E+00  1.07836E+03  6.368E-01  1.000E+01  2.500E-02  1.212E+00
   1    5    9     4     2    9.9091E+00  1.8158E-01   9.7275E+00  0.000E+00  0.000E+00  0.000E+00  1.07154E+03  6.315E-01  1.000E+01  5.000E-02  1.211E+00
   1    6    8     4     3    9.7275E+00  1.2689E-01   9.6006E+00  0.000E+00  0.000E+00  0.000E+00  1.06381E+03  6.256E-01  1.000E+01  3.500E-02  1.209E+00
   1    6    8     5     1    1.0432E+01  2.2686E-01   1.0205E+01  0.000E+00  0.000E+00  0.000E+00  1.05868E+03  6.790E-01  1.542E+01  6.166E-02  1.226E+00
   1    7    7     5     2    1.0205E+01  2.7894E-01   9.9265E+00  0.000E+00  0.000E+00  0.000E+00  1.05417E+03  6.732E-01  1.519E+01  7.594E-02  1.224E+00
   1    8    7     5     3    9.9265E+00  1.9221E-01   9.7343E+00  0.000E+00  0.000E+00  0.000E+00  1.04992E+03  6.676E-01  1.497E+01  5.241E-02  1.223E+00
   1    8    6     5     4    9.7343E+00  1.3577E-01   9.5985E+00  0.000E+00  0.000E+00  0.000E+00  1.04691E+03  6.637E-01  1.482E+01  3.706E-02  1.221E+00
   1    9    6     6     1    2.4353E+01  2.5190E-01   2.4101E+01  0.000E+00  0.000E+00  0.000E+00  1.04393E+03  1.198E+00  1.200E+01  6.000E-02  1.399E+00
   1   10    7     6     2    2.4101E+01  2.5145E-01   2.3850E+01  0.000E+00  0.000E+00  0.000E+00  1.03937E+03  1.191E+00  1.200E+01  6.000E-02  1.397E+00
   1   11    7     6     3    2.3850E+01  2.5100E-01   2.3599E+01  0.000E+00  0.000E+00  0.000E+00  1.03482E+03  1.183E+00  1.200E+01  6.000E-02  1.394E+00
   1   12    7     6     4    2.3599E+01  2.5054E-01   2.3348E+01  0.000E+00  0.000E+00  0.000E+00  1.03027E+03  1.176E+00  1.200E+01  6.000E-02  1.392E+00
   1   13    7     6     5    2.3348E+01 -2.1726E-02   2.3370E+01  0.000E+00  0.000E+00  0.000E+00  1.02708E+03  1.172E+00  1.200E+01  2.400E-01 -3.018E-02
   1   14    9     7     1    1.5000E+02  1.3345E+00   1.4867E+02  0.000E+00  0.000E+00  0.000E+00  1.03987E+03  2.288E+00  5.529E+01  5.593E-01  7.953E-01
   1   13    8     7     2    1.4867E+02  1.8095E+00   1.4686E+02  0.000E+00  0.000E+00  0.000E+00  1.03478E+03  2.279E+00  5.526E+01  6.148E-01  9.811E-01
   1   13    7     7     3    1.4686E+02  1.4063E+00   1.4545E+02  0.000E+00  0.000E+00  0.000E+00  1.02969E+03  2.271E+00  5.522E+01  5.585E-01  8.394E-01
   1   13    6     8     1    1.6882E+02  8.4326E-01   1.6798E+02  0.000E+00  0.000E+00  0.000E+00  1.02482E+03  2.942E+00  4.266E+01  4.347E-01  6.467E-01
   1   13    5     8     2    1.6798E+02  9.9118E-02   1.6788E+02  0.000E+00  0.000E+00  0.000E+00  1.01856E+03  2.939E+00  4.261E+01  4.342E-01  7.609E-02
   1   13    4     8     3    1.6788E+02 -2.7087E+00   1.7059E+02  0.000E+00  0.000E+00  0.000E+00  1.01232E+03  2.947E+00  4.273E+01  4.355E+00 -2.073E-01
   1   13    3     8     4    1.7059E+02 -3.7830E+00   1.7437E+02  0.000E+00  0.000E+00  0.000E+00  1.00609E+03  2.968E+00  4.304E+01  4.386E+00 -2.875E-01
   1   13    2     8     5    1.7437E+02 -2.6239E+00   1.7699E+02  0.000E+00  0.000E+00  0.000E+00  9.99864E+02  2.989E+00  4.334E+01  4.416E+00 -1.980E-01
   1   13    1     8     6    1.7699E+02 -2.0122E+00   1.7900E+02  0.000E+00  0.000E+00  0.000E+00  9.94879E+02  3.004E+00  4.355E+01  2.663E+00 -2.519E-01
   1    8    6     9     1    0.0000E+00  0.0000E+00   0.0000E+00  0.000E+00  0.000E+00  0.000E+00  1.07875E+03  0.000E+00  4.000E+00  0.000E+00  1.000E+00
   1    8    5     9     2    0.0000E+00  0.0000E+00   0.0000E+00  0.000E+00  0.000E+00  0.000E+00  1.07825E+03  0.000E+00  4.000E+00  0.000E+00  1.000E+00





UNSATURATED ZONE PACKAGE VOLUMETRIC BUDGET FOR  TIME STEP    30 STRESS PERIOD   12
  ------------------------------------------------------------------------------



     CUMULATIVE VOLUMES      L**3       RATES FOR THIS TIME STEP      L**3/T
     ------------------                 ------------------------

           IN:                                      IN:
           ---                                      ---
        INFILTRATION =   128118043.7598          INFILTRATION =           4.4075

          OUT:                                     OUT:
          ----                                     ----
              UZF ET =    97994408.4392                UZF ET =           0.7250
        UZF RECHARGE =       73224.0000          UZF RECHARGE =       0.0000E+00

            IN - OUT =    30050411.3206              IN - OUT =           3.6825

          STORAGE:                                 STORAGE:
          --------                                 --------
      STORAGE CHANGE =    30050411.0095        STORAGE CHANGE =           3.6825

 PERCENT DISCREPANCY IS DIFFERENCE BETWEEN IN-OUT MINUS CHANGE IN STORAGE
 DIVIDED BY THE AVERAGE OF IN AND OUT TIMES 100

 PERCENT DISCREPANCY =           0.00     PERCENT DISCREPANCY =           0.00






1
  VOLUMETRIC BUDGET FOR ENTIRE MODEL AT END OF TIME STEP   30, STRESS PERIOD  12
  ------------------------------------------------------------------------------

     CUMULATIVE VOLUMES      L**3       RATES FOR THIS TIME STEP      L**3/T
     ------------------                 ------------------------

           IN:                                      IN:
           ---                                      ---
               AG WELLS  =           0.0000                 AG WELLS  =           0.0000
        DIVERSION SEGMEN =      535838.9375          DIVERSION SEGMEN =           0.0000
    TS         GW IRRIGA =           0.0000      TS         GW IRRIGA =           0.0000
    TION         SW IRRI =           0.0000      TION         SW IRRI =           0.0000
    GATION      SYSTEM L =           0.0000      GATION      SYSTEM L =           0.0000
    OSSES GW      SYSTEM =           0.0000      OSSES GW      SYSTEM =           0.0000

                TOTAL IN =      535838.9375                  TOTAL IN =           0.0000

          OUT:                                     OUT:
          ----                                     ----
               AG WELLS  =           0.0000                 AG WELLS  =           0.0000
        DIVERSION SEGMEN =           0.0000          DIVERSION SEGMEN =           0.0000
    TS         GW IRRIGA =           0.0000      TS         GW IRRIGA =           0.0000
    TION         SW IRRI =      535849.6250      TION         SW IRRI =           0.0000
    GATION      SYSTEM L =           0.0000      GATION      SYSTEM L =           0.0000
    OSSES GW      SYSTEM =           0.0000      OSSES GW      SYSTEM =           0.0000

               TOTAL OUT =      535849.6250                 TOTAL OUT =           0.0000

                IN - OUT =         -10.6875                  IN - OUT =           0.0000

     PERCENT DISCREPANCY =          -0.00         PERCENT DISCREPANCY =           0.00



1
  VOLUMETRIC BUDGET FOR ENTIRE MODEL AT END OF TIME STEP   30, STRESS PERIOD  12
  ------------------------------------------------------------------------------

     CUMULATIVE VOLUMES      L**3       RATES FOR THIS TIME STEP      L**3/T
     ------------------                 ------------------------

           IN:                                      IN:
           ---                                      ---
             STORAGE     =    18224996.0000               STORAGE     =           0.5618
       CONSTANT HEAD     =           0.0000         CONSTANT HEAD     =           0.0000
     HEAD DEP BOUNDS     =     8290578.5000       HEAD DEP BOUNDS     =           0.2857
      STREAM LEAKAGE     =   352664448.0000        STREAM LEAKAGE     =          11.2254
        UZF RECHARGE     =       73223.9531          UZF RECHARGE     =           0.0000
               GW ET     =           0.0000                 GW ET     =           0.0000
     SURFACE LEAKAGE     =           0.0000       SURFACE LEAKAGE     =           0.0000
           AG WELLS      =           0.0000             AG WELLS      =           0.0000

                TOTAL IN =   379253248.0000                  TOTAL IN =          12.0729

          OUT:                                     OUT:
          ----                                     ----
             STORAGE     =    57045572.0000               STORAGE     =           0.6333
       CONSTANT HEAD     =           0.0000         CONSTANT HEAD     =           0.0000
     HEAD DEP BOUNDS     =     8498810.0000       HEAD DEP BOUNDS     =           0.2901
      STREAM LEAKAGE     =   307027200.0000        STREAM LEAKAGE     =          11.1495
        UZF RECHARGE     =           0.0000          UZF RECHARGE     =           0.0000
               GW ET     =     6692063.5000                 GW ET     =           0.0000
     SURFACE LEAKAGE     =           0.0000       SURFACE LEAKAGE     =           0.0000
           AG WELLS      =           0.0000             AG WELLS      =           0.0000

               TOTAL OUT =   379263648.0000                 TOTAL OUT =          12.0729

                IN - OUT =      -10400.0000                  IN - OUT =      -1.6212E-05

     PERCENT DISCREPANCY =          -0.00         PERCENT DISCREPANCY =          -0.00






         TIME SUMMARY AT END OF TIME STEP   30 IN STRESS PERIOD   12
                    SECONDS     MINUTES      HOURS       DAYS        YEARS
                    -----------------------------------------------------------
   TIME STEP LENGTH  87667.      1461.1      24.352      1.0147     2.77799E-03
 STRESS PERIOD TIME 2.63000E+06  43833.      730.56      30.440     8.33397E-02
         TOTAL TIME 2.90163E+07 4.83606E+05  8060.1      335.84     0.91947    
1
1
                            STRESS PERIOD NO.   13, LENGTH =   2630000.    
                            -----------------------------------------------

                              NUMBER OF TIME STEPS =    30

                               MULTIPLIER FOR DELT =     1.000

                            INITIAL TIME STEP SIZE =   87666.66    

 REUSING NON-PARAMETER GHB CELLS FROM LAST STRESS PERIOD

      2 GHB CELLS

 REUSING STREAM SEGMENT DATA FROM LAST STRESS PERIOD



            AREAL INFILTRATION RATE
 READING ON UNIT   19 WITH FORMAT: (10F4.0)            

            1           2           3           4           5           6           7           8           9          10
 ........................................................................................................................
   1   1.2000E-09   0.000       0.000       0.000       0.000       0.000       0.000       0.000       0.000       0.000    
   2   2.1000E-09  2.0000E-09  8.0000E-10  8.5000E-09   0.000       0.000       0.000       0.000       0.000       0.000    
   3   5.0000E-10  1.1000E-09  8.8000E-09  5.5000E-09   0.000       0.000       0.000       0.000       0.000       0.000    
   4   8.5000E-09  1.1000E-09  1.1000E-09  1.1000E-09  2.0000E-09   0.000       0.000       0.000       0.000       0.000    
   5   8.5000E-09  1.1000E-09  1.1000E-09  1.1000E-09  1.1000E-09   0.000       0.000       0.000       0.000       0.000    
   6   8.5000E-09  5.2000E-09  2.1000E-09  1.1000E-09  1.5000E-09   0.000       0.000       0.000       0.000       0.000    
   7   8.5000E-09  5.2000E-09  2.1000E-09  1.2000E-09  2.0000E-09   0.000       0.000       0.000       0.000       0.000    
   8   5.0000E-10  5.2000E-09  2.1000E-09  1.2000E-09  5.0000E-09   0.000       0.000       0.000       0.000       0.000    
   9   5.0000E-10  5.2000E-09  2.1000E-09  1.2000E-09  5.0000E-09   0.000       0.000       0.000       0.000       0.000    
  10   5.0000E-10  5.2000E-09  2.1000E-09  1.2000E-09  5.8000E-09   0.000       0.000       0.000       0.000       0.000    
  11   1.0000E-10  1.1000E-09  1.1000E-09  1.2000E-09  5.0000E-09   0.000       0.000       0.000       0.000       0.000    
  12   1.1000E-09  1.1000E-09  1.1000E-09  1.1000E-09  2.0000E-09   0.000       0.000       0.000       0.000       0.000    
  13   1.1000E-09  2.2000E-09  2.2000E-09  2.1000E-09  1.0000E-09   0.000       0.000       0.000       0.000       0.000    
  14   2.0000E-10  5.5000E-09  5.5000E-09  5.2000E-09  1.0000E-09   0.000       0.000       0.000       0.000       0.000    
  15    0.000      8.8000E-09  8.8000E-09   0.000       0.000       0.000       0.000       0.000       0.000       0.000    

                  ET RATE =  5.000000E-10

 USING ET EXTINCTION DEPTH FROM PREVIOUS STRESS PERIOD. CURRENT PERIOD IS:      13

 USING EXTINCTION WATER CONTENT FROM PREVIOUS STRESS PERIOD. CURRENT PERIOD IS:      13

 USING AIR ENTRY PRESSURE FROM PREVIOUS STRESS PERIOD. CURRENT PERIOD IS:      13

 USING ROOT PRESSURE HEAD FROM PREVIOUS STRESS PERIOD. CURRENT PERIOD IS:      13

 USING ROOT ACTIVITY FROM PREVIOUS STRESS PERIOD. CURRENT PERIOD IS:      13

 PROCESSING AG STRESS PERIOD DATA

 READING AG STRESS PERIOD DATA

 READING IRRIGATION SEGMENT

 READING IRRIGATION WELL

 READING SUPPLEMENTAL WELL

 END PROCESSING AG STRESS PERIOD DATA OPTIONS
 
 SOLVING FOR HEAD 
                                                   Max.-Head-Change                         Max.-Flux-Residual
  Residual-Control   Outer-Iter.   Inner-Iter.     Column Row Layer    Maximum-Head-Change  Column Row Layer    Maximum-Flux-Residual          L2-NORM 
          0                 1           2             2    1     1       0.1602671275E-02       2    1    1         0.8325259798E-01      0.2092083948E+00
          0                 2           2             2    1     1      -0.1558963307E-03       2    1    1        -0.8325267665E-02      0.2072881099E-01
          0                 3           1             2    1     1       0.1061596162E-04       2    1    1         0.5827689083E-03      0.1433141081E-02

    ------------------------------------------------
       NWT REQUIRED            3 OUTER ITERATIONS 
       AND A TOTAL OF          5 INNER ITERATIONS.
    ------------------------------------------------

 NO OUTPUT CONTROL FOR STRESS PERIOD   13   TIME STEP    1
 
 SOLVING FOR HEAD 
                                                   Max.-Head-Change                         Max.-Flux-Residual
  Residual-Control   Outer-Iter.   Inner-Iter.     Column Row Layer    Maximum-Head-Change  Column Row Layer    Maximum-Flux-Residual          L2-NORM 
          0                 1           2             2    1     1       0.1599952697E-02       2    1    1         0.8311054834E-01      0.2037890893E+00
          0                 2           2             2    1     1      -0.1556318866E-03       2    1    1        -0.8311062653E-02      0.2020838979E-01
          0                 3           1             2    1     1       0.1059795409E-04       2    1    1         0.5817745686E-03      0.1398938159E-02

    ------------------------------------------------
       NWT REQUIRED            3 OUTER ITERATIONS 
       AND A TOTAL OF          5 INNER ITERATIONS.
    ------------------------------------------------

 NO OUTPUT CONTROL FOR STRESS PERIOD   13   TIME STEP    2
 
 SOLVING FOR HEAD 
                                                   Max.-Head-Change                         Max.-Flux-Residual
  Residual-Control   Outer-Iter.   Inner-Iter.     Column Row Layer    Maximum-Head-Change  Column Row Layer    Maximum-Flux-Residual          L2-NORM 
          0                 1           2             2    1     1       0.1597254950E-02       2    1    1         0.8296959294E-01      0.1988933640E+00
          0                 2           2             2    1     1      -0.1553694681E-03       2    1    1        -0.8296967042E-02      0.1973757676E-01
          0                 3           1             2    1     1       0.1058008384E-04       2    1    1         0.5807878651E-03      0.1367783757E-02

    ------------------------------------------------
       NWT REQUIRED            3 OUTER ITERATIONS 
       AND A TOTAL OF          5 INNER ITERATIONS.
    ------------------------------------------------

 NO OUTPUT CONTROL FOR STRESS PERIOD   13   TIME STEP    3
 
 SOLVING FOR HEAD 
                                                   Max.-Head-Change                         Max.-Flux-Residual
  Residual-Control   Outer-Iter.   Inner-Iter.     Column Row Layer    Maximum-Head-Change  Column Row Layer    Maximum-Flux-Residual          L2-NORM 
          0                 1           2             2    1     1       0.1594577667E-02       2    1    1         0.8282971762E-01      0.1944551565E+00
          0                 2           2             2    1     1      -0.1551090409E-03       2    1    1        -0.8282979457E-02      0.1930993361E-01
          0                 3           1             2    1     1       0.1056235015E-04       2    1    1         0.5798087397E-03      0.1339981117E-02

    ------------------------------------------------
       NWT REQUIRED            3 OUTER ITERATIONS 
       AND A TOTAL OF          5 INNER ITERATIONS.
    ------------------------------------------------

 NO OUTPUT CONTROL FOR STRESS PERIOD   13   TIME STEP    4
 
 SOLVING FOR HEAD 
                                                   Max.-Head-Change                         Max.-Flux-Residual
  Residual-Control   Outer-Iter.   Inner-Iter.     Column Row Layer    Maximum-Head-Change  Column Row Layer    Maximum-Flux-Residual          L2-NORM 
          0                 1           2             2    1     1       0.1591920682E-02       2    1    1         0.8269090337E-01      0.1904295944E+00
          0                 2           2             2    1     1      -0.1548505878E-03       2    1    1        -0.8269097977E-02      0.1892144043E-01
          0                 3           1             2    1     1       0.1054475018E-04       2    1    1         0.5788370279E-03      0.1313221675E-02

    ------------------------------------------------
       NWT REQUIRED            3 OUTER ITERATIONS 
       AND A TOTAL OF          5 INNER ITERATIONS.
    ------------------------------------------------

 NO OUTPUT CONTROL FOR STRESS PERIOD   13   TIME STEP    5
 
 SOLVING FOR HEAD 
                                                   Max.-Head-Change                         Max.-Flux-Residual
  Residual-Control   Outer-Iter.   Inner-Iter.     Column Row Layer    Maximum-Head-Change  Column Row Layer    Maximum-Flux-Residual          L2-NORM 
          0                 1           2             2    1     1       0.1589283733E-02       2    1    1         0.8255314152E-01      0.1867624977E+00
          0                 2           2             2    1     1      -0.1545940832E-03       2    1    1        -0.8255321716E-02      0.1856775521E-01
          0                 3           1             2    1     1       0.1052728322E-04       2    1    1         0.5778726821E-03      0.1289748465E-02

    ------------------------------------------------
       NWT REQUIRED            3 OUTER ITERATIONS 
       AND A TOTAL OF          5 INNER ITERATIONS.
    ------------------------------------------------

 NO OUTPUT CONTROL FOR STRESS PERIOD   13   TIME STEP    6
 
 SOLVING FOR HEAD 
                                                   Max.-Head-Change                         Max.-Flux-Residual
  Residual-Control   Outer-Iter.   Inner-Iter.     Column Row Layer    Maximum-Head-Change  Column Row Layer    Maximum-Flux-Residual          L2-NORM 
          0                 1           2             2    1     1       0.1586666563E-02       2    1    1         0.8241641853E-01      0.1834209926E+00
          0                 2           2             2    1     1      -0.1543395030E-03       2    1    1        -0.8241649343E-02      0.1824518491E-01
          0                 3           1             2    1     1       0.1050994761E-04       2    1    1         0.5769156388E-03      0.1268414086E-02

    ------------------------------------------------
       NWT REQUIRED            3 OUTER ITERATIONS 
       AND A TOTAL OF          5 INNER ITERATIONS.
    ------------------------------------------------

 NO OUTPUT CONTROL FOR STRESS PERIOD   13   TIME STEP    7
 
 SOLVING FOR HEAD 
                                                   Max.-Head-Change                         Max.-Flux-Residual
  Residual-Control   Outer-Iter.   Inner-Iter.     Column Row Layer    Maximum-Head-Change  Column Row Layer    Maximum-Flux-Residual          L2-NORM 
          0                 1           2             2    1     1       0.1584068918E-02       2    1    1         0.8228072102E-01      0.1803645602E+00
          0                 2           2             2    1     1      -0.1540868221E-03       2    1    1        -0.8228079553E-02      0.1795020384E-01
          0                 3           1             2    1     1       0.1049274075E-04       2    1    1         0.5759657391E-03      0.1248444244E-02

    ------------------------------------------------
       NWT REQUIRED            3 OUTER ITERATIONS 
       AND A TOTAL OF          5 INNER ITERATIONS.
    ------------------------------------------------

 NO OUTPUT CONTROL FOR STRESS PERIOD   13   TIME STEP    8
 
 SOLVING FOR HEAD 
                                                   Max.-Head-Change                         Max.-Flux-Residual
  Residual-Control   Outer-Iter.   Inner-Iter.     Column Row Layer    Maximum-Head-Change  Column Row Layer    Maximum-Flux-Residual          L2-NORM 
          0                 1           2             2    1     1       0.1581469348E-02       2    1    1         0.8214493400E-01      0.1775572189E+00
          0                 2           2             2    1     1      -0.1538339542E-03       2    1    1        -0.8214500786E-02      0.1767847335E-01
          0                 3           1             2    1     1       0.1047552206E-04       2    1    1         0.5750152453E-03      0.1230636441E-02

    ------------------------------------------------
       NWT REQUIRED            3 OUTER ITERATIONS 
       AND A TOTAL OF          5 INNER ITERATIONS.
    ------------------------------------------------

 NO OUTPUT CONTROL FOR STRESS PERIOD   13   TIME STEP    9
 
 SOLVING FOR HEAD 
                                                   Max.-Head-Change                         Max.-Flux-Residual
  Residual-Control   Outer-Iter.   Inner-Iter.     Column Row Layer    Maximum-Head-Change  Column Row Layer    Maximum-Flux-Residual          L2-NORM 
          0                 1           2             2    1     1       0.1578910060E-02       2    1    1         0.8201125094E-01      0.1749814937E+00
          0                 2           2             2    1     1      -0.1535850038E-03       2    1    1        -0.8201132407E-02      0.1742907975E-01
          0                 3           1             2    1     1       0.1045856916E-04       2    1    1         0.5740794350E-03      0.1213652590E-02

    ------------------------------------------------
       NWT REQUIRED            3 OUTER ITERATIONS 
       AND A TOTAL OF          5 INNER ITERATIONS.
    ------------------------------------------------

 NO OUTPUT CONTROL FOR STRESS PERIOD   13   TIME STEP   10
 
 SOLVING FOR HEAD 
                                                   Max.-Head-Change                         Max.-Flux-Residual
  Residual-Control   Outer-Iter.   Inner-Iter.     Column Row Layer    Maximum-Head-Change  Column Row Layer    Maximum-Flux-Residual          L2-NORM 
          0                 1           2             2    1     1       0.1576369587E-02       2    1    1         0.8187855458E-01      0.1725993791E+00
          0                 2           2             2    1     1      -0.1533378845E-03       2    1    1        -0.8187862712E-02      0.1719839615E-01
          0                 3           1             2    1     1       0.1044174145E-04       2    1    1         0.5731505760E-03      0.1199192792E-02

    ------------------------------------------------
       NWT REQUIRED            3 OUTER ITERATIONS 
       AND A TOTAL OF          5 INNER ITERATIONS.
    ------------------------------------------------

 NO OUTPUT CONTROL FOR STRESS PERIOD   13   TIME STEP   11
 
 SOLVING FOR HEAD 
                                                   Max.-Head-Change                         Max.-Flux-Residual
  Residual-Control   Outer-Iter.   Inner-Iter.     Column Row Layer    Maximum-Head-Change  Column Row Layer    Maximum-Flux-Residual          L2-NORM 
          0                 1           2             2    1     1       0.1573847762E-02       2    1    1         0.8174683380E-01      0.1703983163E+00
          0                 2           2             2    1     1      -0.1530925790E-03       2    1    1        -0.8174690599E-02      0.1698499597E-01
          0                 3           1             2    1     1       0.1042503681E-04       2    1    1         0.5722285191E-03      0.1184168430E-02

    ------------------------------------------------
       NWT REQUIRED            3 OUTER ITERATIONS 
       AND A TOTAL OF          5 INNER ITERATIONS.
    ------------------------------------------------

 NO OUTPUT CONTROL FOR STRESS PERIOD   13   TIME STEP   12
 
 SOLVING FOR HEAD 
                                                   Max.-Head-Change                         Max.-Flux-Residual
  Residual-Control   Outer-Iter.   Inner-Iter.     Column Row Layer    Maximum-Head-Change  Column Row Layer    Maximum-Flux-Residual          L2-NORM 
          0                 1           2             2    1     1       0.1571323045E-02       2    1    1         0.8161497771E-01      0.1683523273E+00
          0                 2           2             2    1     1      -0.1528469921E-03       2    1    1        -0.8161504925E-02      0.1678524331E-01
          0                 3           1             2    1     1       0.1040831348E-04       2    1    1         0.5713055306E-03      0.1170140581E-02

    ------------------------------------------------
       NWT REQUIRED            3 OUTER ITERATIONS 
       AND A TOTAL OF          5 INNER ITERATIONS.
    ------------------------------------------------

 NO OUTPUT CONTROL FOR STRESS PERIOD   13   TIME STEP   13
 
 SOLVING FOR HEAD 
                                                   Max.-Head-Change                         Max.-Flux-Residual
  Residual-Control   Outer-Iter.   Inner-Iter.     Column Row Layer    Maximum-Head-Change  Column Row Layer    Maximum-Flux-Residual          L2-NORM 
          0                 1           2             2    1     1       0.1568837763E-02       2    1    1         0.8148517593E-01      0.1664527497E+00
          0                 2           2             2    1     1      -0.1526052405E-03       2    1    1        -0.8148524687E-02      0.1660063568E-01
          0                 3           1             2    1     1       0.1039185073E-04       2    1    1         0.5703968934E-03      0.1158109092E-02

    ------------------------------------------------
       NWT REQUIRED            3 OUTER ITERATIONS 
       AND A TOTAL OF          5 INNER ITERATIONS.
    ------------------------------------------------

 NO OUTPUT CONTROL FOR STRESS PERIOD   13   TIME STEP   14
 
 SOLVING FOR HEAD 
                                                   Max.-Head-Change                         Max.-Flux-Residual
  Residual-Control   Outer-Iter.   Inner-Iter.     Column Row Layer    Maximum-Head-Change  Column Row Layer    Maximum-Flux-Residual          L2-NORM 
          0                 1           2             2    1     1       0.1566370335E-02       2    1    1         0.8135631673E-01      0.1646741312E+00
          0                 2           2             2    1     1      -0.1523652264E-03       2    1    1        -0.8135638712E-02      0.1642737537E-01
          0                 3           1             2    1     1       0.1037550702E-04       2    1    1         0.5694948755E-03      0.1146287954E-02

    ------------------------------------------------
       NWT REQUIRED            3 OUTER ITERATIONS 
       AND A TOTAL OF          5 INNER ITERATIONS.
    ------------------------------------------------

 NO OUTPUT CONTROL FOR STRESS PERIOD   13   TIME STEP   15
 
 SOLVING FOR HEAD 
                                                   Max.-Head-Change                         Max.-Flux-Residual
  Residual-Control   Outer-Iter.   Inner-Iter.     Column Row Layer    Maximum-Head-Change  Column Row Layer    Maximum-Flux-Residual          L2-NORM 
          0                 1           2             2    1     1       0.1563899426E-02       2    1    1         0.8122728098E-01      0.1630161976E+00
          0                 2           2             2    1     1      -0.1521248738E-03       2    1    1        -0.8122735093E-02      0.1626564452E-01
          0                 3           1             2    1     1       0.1035913964E-04       2    1    1         0.5685916274E-03      0.1135433163E-02

    ------------------------------------------------
       NWT REQUIRED            3 OUTER ITERATIONS 
       AND A TOTAL OF          5 INNER ITERATIONS.
    ------------------------------------------------

 NO OUTPUT CONTROL FOR STRESS PERIOD   13   TIME STEP   16
 
 SOLVING FOR HEAD 
                                                   Max.-Head-Change                         Max.-Flux-Residual
  Residual-Control   Outer-Iter.   Inner-Iter.     Column Row Layer    Maximum-Head-Change  Column Row Layer    Maximum-Flux-Residual          L2-NORM 
          0                 1           2             2    1     1       0.1561467280E-02       2    1    1         0.8110026923E-01      0.1614579805E+00
          0                 2           2             2    1     1      -0.1518882912E-03       2    1    1        -0.8110033856E-02      0.1611326968E-01
          0                 3           1             2    1     1       0.1034302929E-04       2    1    1         0.5677025355E-03      0.1124893813E-02

    ------------------------------------------------
       NWT REQUIRED            3 OUTER ITERATIONS 
       AND A TOTAL OF          5 INNER ITERATIONS.
    ------------------------------------------------

 NO OUTPUT CONTROL FOR STRESS PERIOD   13   TIME STEP   17
 
 SOLVING FOR HEAD 
                                                   Max.-Head-Change                         Max.-Flux-Residual
  Residual-Control   Outer-Iter.   Inner-Iter.     Column Row Layer    Maximum-Head-Change  Column Row Layer    Maximum-Flux-Residual          L2-NORM 
          0                 1           2             2    1     1       0.1559052323E-02       2    1    1         0.8097416507E-01      0.1599896567E+00
          0                 2           2             2    1     1      -0.1516533807E-03       2    1    1        -0.8097423388E-02      0.1596977911E-01
          0                 3           1             2    1     1       0.1032703278E-04       2    1    1         0.5668197929E-03      0.1115229130E-02

    ------------------------------------------------
       NWT REQUIRED            3 OUTER ITERATIONS 
       AND A TOTAL OF          5 INNER ITERATIONS.
    ------------------------------------------------

 NO OUTPUT CONTROL FOR STRESS PERIOD   13   TIME STEP   18
 
 SOLVING FOR HEAD 
                                                   Max.-Head-Change                         Max.-Flux-Residual
  Residual-Control   Outer-Iter.   Inner-Iter.     Column Row Layer    Maximum-Head-Change  Column Row Layer    Maximum-Flux-Residual          L2-NORM 
          0                 1           2             2    1     1       0.1556633254E-02       2    1    1         0.8084784974E-01      0.1586086823E+00
          0                 2           2             2    1     1      -0.1514180708E-03       2    1    1        -0.8084791803E-02      0.1583428992E-01
          0                 3           1             2    1     1       0.1031100905E-04       2    1    1         0.5659355978E-03      0.1105837307E-02

    ------------------------------------------------
       NWT REQUIRED            3 OUTER ITERATIONS 
       AND A TOTAL OF          5 INNER ITERATIONS.
    ------------------------------------------------

 NO OUTPUT CONTROL FOR STRESS PERIOD   13   TIME STEP   19
 
 SOLVING FOR HEAD 
                                                   Max.-Head-Change                         Max.-Flux-Residual
  Residual-Control   Outer-Iter.   Inner-Iter.     Column Row Layer    Maximum-Head-Change  Column Row Layer    Maximum-Flux-Residual          L2-NORM 
          0                 1           2             2    1     1       0.1554252306E-02       2    1    1         0.8072352602E-01      0.1573054277E+00
          0                 2           2             2    1     1      -0.1511864688E-03       2    1    1        -0.8072359375E-02      0.1570657235E-01
          0                 3           1             2    1     1       0.1029523833E-04       2    1    1         0.5650653434E-03      0.1097378613E-02

    ------------------------------------------------
       NWT REQUIRED            3 OUTER ITERATIONS 
       AND A TOTAL OF          5 INNER ITERATIONS.
    ------------------------------------------------

 NO OUTPUT CONTROL FOR STRESS PERIOD   13   TIME STEP   20
 
 SOLVING FOR HEAD 
                                                   Max.-Head-Change                         Max.-Flux-Residual
  Residual-Control   Outer-Iter.   Inner-Iter.     Column Row Layer    Maximum-Head-Change  Column Row Layer    Maximum-Flux-Residual          L2-NORM 
          0                 1           2             2    1     1       0.1551888008E-02       2    1    1         0.8060007641E-01      0.1560687026E+00
          0                 2           2             2    1     1      -0.1509564865E-03       2    1    1        -0.8060014368E-02      0.1558520448E-01
          0                 3           1             2    1     1       0.1027957742E-04       2    1    1         0.5642012001E-03      0.1088733543E-02

    ------------------------------------------------
       NWT REQUIRED            3 OUTER ITERATIONS 
       AND A TOTAL OF          5 INNER ITERATIONS.
    ------------------------------------------------

 NO OUTPUT CONTROL FOR STRESS PERIOD   13   TIME STEP   21
 
 SOLVING FOR HEAD 
                                                   Max.-Head-Change                         Max.-Flux-Residual
  Residual-Control   Outer-Iter.   Inner-Iter.     Column Row Layer    Maximum-Head-Change  Column Row Layer    Maximum-Flux-Residual          L2-NORM 
          0                 1           2             2    1     1       0.1549518940E-02       2    1    1         0.8047638754E-01      0.1548954086E+00
          0                 2           2             2    1     1      -0.1507260397E-03       2    1    1        -0.8047645410E-02      0.1546987220E-01
          0                 3           1             2    1     1       0.1026388504E-04       2    1    1         0.5633353716E-03      0.1081009634E-02

    ------------------------------------------------
       NWT REQUIRED            3 OUTER ITERATIONS 
       AND A TOTAL OF          5 INNER ITERATIONS.
    ------------------------------------------------

 NO OUTPUT CONTROL FOR STRESS PERIOD   13   TIME STEP   22
 
 SOLVING FOR HEAD 
                                                   Max.-Head-Change                         Max.-Flux-Residual
  Residual-Control   Outer-Iter.   Inner-Iter.     Column Row Layer    Maximum-Head-Change  Column Row Layer    Maximum-Flux-Residual          L2-NORM 
          0                 1           2             2    1     1       0.1547187474E-02       2    1    1         0.8035465645E-01      0.1537833776E+00
          0                 2           2             2    1     1      -0.1504992512E-03       2    1    1        -0.8035472264E-02      0.1536046137E-01
          0                 3           1             2    1     1       0.1024844187E-04       2    1    1         0.5624832613E-03      0.1073615170E-02

    ------------------------------------------------
       NWT REQUIRED            3 OUTER ITERATIONS 
       AND A TOTAL OF          5 INNER ITERATIONS.
    ------------------------------------------------

 NO OUTPUT CONTROL FOR STRESS PERIOD   13   TIME STEP   23
 
 SOLVING FOR HEAD 
                                                   Max.-Head-Change                         Max.-Flux-Residual
  Residual-Control   Outer-Iter.   Inner-Iter.     Column Row Layer    Maximum-Head-Change  Column Row Layer    Maximum-Flux-Residual          L2-NORM 
          0                 1           2             2    1     1       0.1544850834E-02       2    1    1         0.8023266982E-01      0.1527195603E+00
          0                 2           2             2    1     1      -0.1502719594E-03       2    1    1        -0.8023273581E-02      0.1525589835E-01
          0                 3           1             2    1     1       0.1023296391E-04       2    1    1         0.5616293411E-03      0.1066412771E-02

    ------------------------------------------------
       NWT REQUIRED            3 OUTER ITERATIONS 
       AND A TOTAL OF          5 INNER ITERATIONS.
    ------------------------------------------------

 NO OUTPUT CONTROL FOR STRESS PERIOD   13   TIME STEP   24
 
 SOLVING FOR HEAD 
                                                   Max.-Head-Change                         Max.-Flux-Residual
  Residual-Control   Outer-Iter.   Inner-Iter.     Column Row Layer    Maximum-Head-Change  Column Row Layer    Maximum-Flux-Residual          L2-NORM 
          0                 1           2             2    1     1       0.1542551330E-02       2    1    1         0.8011262015E-01      0.1517108189E+00
          0                 2           2             2    1     1      -0.1500482792E-03       2    1    1        -0.8011268546E-02      0.1515614541E-01
          0                 3           1             2    1     1       0.1021773209E-04       2    1    1         0.5607889822E-03      0.1059730749E-02

    ------------------------------------------------
       NWT REQUIRED            3 OUTER ITERATIONS 
       AND A TOTAL OF          5 INNER ITERATIONS.
    ------------------------------------------------

 NO OUTPUT CONTROL FOR STRESS PERIOD   13   TIME STEP   25
 
 SOLVING FOR HEAD 
                                                   Max.-Head-Change                         Max.-Flux-Residual
  Residual-Control   Outer-Iter.   Inner-Iter.     Column Row Layer    Maximum-Head-Change  Column Row Layer    Maximum-Flux-Residual          L2-NORM 
          0                 1           2             2    1     1       0.1540246259E-02       2    1    1         0.7999229062E-01      0.1507428825E+00
          0                 2           2             2    1     1      -0.1498240579E-03       2    1    1        -0.7999235549E-02      0.1506086938E-01
          0                 3           1             2    1     1       0.1020246335E-04       2    1    1         0.5599466640E-03      0.1053116280E-02

    ------------------------------------------------
       NWT REQUIRED            3 OUTER ITERATIONS 
       AND A TOTAL OF          5 INNER ITERATIONS.
    ------------------------------------------------

 NO OUTPUT CONTROL FOR STRESS PERIOD   13   TIME STEP   26
 
 SOLVING FOR HEAD 
                                                   Max.-Head-Change                         Max.-Flux-Residual
  Residual-Control   Outer-Iter.   Inner-Iter.     Column Row Layer    Maximum-Head-Change  Column Row Layer    Maximum-Flux-Residual          L2-NORM 
          0                 1           2             2    1     1       0.1537978012E-02       2    1    1         0.7987387791E-01      0.1498147884E+00
          0                 2           2             2    1     1      -0.1496034186E-03       2    1    1        -0.7987394240E-02      0.1496894616E-01
          0                 3           1             2    1     1       0.1018743839E-04       2    1    1         0.5591177641E-03      0.1047063396E-02

    ------------------------------------------------
       NWT REQUIRED            3 OUTER ITERATIONS 
       AND A TOTAL OF          5 INNER ITERATIONS.
    ------------------------------------------------

 NO OUTPUT CONTROL FOR STRESS PERIOD   13   TIME STEP   27
 
 SOLVING FOR HEAD 
                                                   Max.-Head-Change                         Max.-Flux-Residual
  Residual-Control   Outer-Iter.   Inner-Iter.     Column Row Layer    Maximum-Head-Change  Column Row Layer    Maximum-Flux-Residual          L2-NORM 
          0                 1           2             2    1     1       0.1535703814E-02       2    1    1         0.7975516888E-01      0.1489303965E+00
          0                 2           2             2    1     1      -0.1493822005E-03       2    1    1        -0.7975523273E-02      0.1488170798E-01
          0                 3           1             2    1     1       0.1017237484E-04       2    1    1         0.5582868208E-03      0.1040703589E-02

    ------------------------------------------------
       NWT REQUIRED            3 OUTER ITERATIONS 
       AND A TOTAL OF          5 INNER ITERATIONS.
    ------------------------------------------------

 NO OUTPUT CONTROL FOR STRESS PERIOD   13   TIME STEP   28
 
 SOLVING FOR HEAD 
                                                   Max.-Head-Change                         Max.-Flux-Residual
  Residual-Control   Outer-Iter.   Inner-Iter.     Column Row Layer    Maximum-Head-Change  Column Row Layer    Maximum-Flux-Residual          L2-NORM 
          0                 1           2             2    1     1       0.1533466068E-02       2    1    1         0.7963835704E-01      0.1480722574E+00
          0                 2           2             2    1     1      -0.1491645279E-03       2    1    1        -0.7963842039E-02      0.1479680370E-01
          0                 3           1             2    1     1       0.1015755200E-04       2    1    1         0.5574691207E-03      0.1034700656E-02

    ------------------------------------------------
       NWT REQUIRED            3 OUTER ITERATIONS 
       AND A TOTAL OF          5 INNER ITERATIONS.
    ------------------------------------------------

 NO OUTPUT CONTROL FOR STRESS PERIOD   13   TIME STEP   29
 
 SOLVING FOR HEAD 
                                                   Max.-Head-Change                         Max.-Flux-Residual
  Residual-Control   Outer-Iter.   Inner-Iter.     Column Row Layer    Maximum-Head-Change  Column Row Layer    Maximum-Flux-Residual          L2-NORM 
          0                 1           2             2    1     1       0.1531222027E-02       2    1    1         0.7952122935E-01      0.1472582252E+00
          0                 2           2             2    1     1      -0.1489462433E-03       2    1    1        -0.7952129220E-02      0.1471604409E-01
          0                 3           1             2    1     1       0.1014268773E-04       2    1    1         0.5566492371E-03      0.1029282937E-02

    ------------------------------------------------
       NWT REQUIRED            3 OUTER ITERATIONS 
       AND A TOTAL OF          5 INNER ITERATIONS.
    ------------------------------------------------

 NO OUTPUT CONTROL FOR STRESS PERIOD   13   TIME STEP   30



 STREAM LISTING     PERIOD     13   STEP       30

 LAYER ROW COL. STREAM  RCH.  FLOW INTO     FLOW TO   FLOW OUT OF   OVRLND.     DIRECT     STREAM       STREAM     STREAM     STREAM   STREAMBED  STREAMBED
                SEG.NO.  NO.  STRM. RCH.    AQUIFER    STRM. RCH.    RUNOFF     PRECIP       ET          HEAD       DEPTH      WIDTH   CONDCTNC.   GRADIENT

   1    1    1     1     1    1.7250E+01  2.0269E-01   1.7047E+01  0.000E+00  0.000E+00  0.000E+00  1.09410E+03  1.052E+00  1.112E+01  5.002E-02  1.351E+00
   1    2    2     1     2    1.7047E+01  3.1258E-01   1.6735E+01  0.000E+00  0.000E+00  0.000E+00  1.08911E+03  1.047E+00  1.103E+01  7.723E-02  1.349E+00
   1    3    3     1     3    1.6735E+01  2.6529E-01   1.6469E+01  0.000E+00  0.000E+00  0.000E+00  1.08346E+03  1.042E+00  1.094E+01  6.563E-02  1.347E+00
   1    3    4     1     4    1.6469E+01  2.4324E-01   1.6226E+01  0.000E+00  0.000E+00  0.000E+00  1.07845E+03  1.038E+00  1.085E+01  6.024E-02  1.346E+00
   1    4    5     2     1    1.4226E+01  3.0073E-01   1.3925E+01  0.000E+00  0.000E+00  0.000E+00  1.07279E+03  8.555E-01  1.200E+01  7.800E-02  1.285E+00
   1    5    6     2     2    1.3925E+01  2.3075E-01   1.3695E+01  0.000E+00  0.000E+00  0.000E+00  1.06736E+03  8.458E-01  1.200E+01  6.000E-02  1.282E+00
   1    6    6     2     3    1.3695E+01  2.3024E-01   1.3464E+01  0.000E+00  0.000E+00  0.000E+00  1.06263E+03  8.373E-01  1.200E+01  6.000E-02  1.279E+00
   1    7    6     2     4    1.3464E+01  2.2972E-01   1.3235E+01  0.000E+00  0.000E+00  0.000E+00  1.05790E+03  8.287E-01  1.200E+01  6.000E-02  1.276E+00
   1    8    6     2     5    1.3235E+01  2.2921E-01   1.3005E+01  0.000E+00  0.000E+00  0.000E+00  1.05318E+03  8.202E-01  1.200E+01  6.000E-02  1.273E+00
   1    3    5     3     1    2.0000E+00  2.8252E-01   1.7175E+00  0.000E+00  0.000E+00  0.000E+00  1.07555E+03  1.909E+00  9.636E+00  7.227E-02  1.955E+00
   1    3    6     3     2    1.7175E+00  2.4905E-01   1.4684E+00  0.000E+00  0.000E+00  0.000E+00  1.07264E+03  1.727E+00  8.909E+00  6.682E-02  1.864E+00
   1    3    7     3     3    1.4684E+00  1.9718E-01   1.2712E+00  0.000E+00  0.000E+00  0.000E+00  1.06987E+03  1.555E+00  8.218E+00  5.547E-02  1.777E+00
   1    4    8     3     4    1.2712E+00  2.2567E-01   1.0456E+00  0.000E+00  0.000E+00  0.000E+00  1.06682E+03  1.364E+00  7.455E+00  6.709E-02  1.682E+00
   1    5    8     3     5    1.0456E+00  1.5790E-01   8.8768E-01  0.000E+00  0.000E+00  0.000E+00  1.06362E+03  1.164E+00  6.655E+00  4.991E-02  1.582E+00
   1    6    8     3     6    8.8768E-01  5.5980E-02   8.3170E-01  0.000E+00  0.000E+00  0.000E+00  1.06158E+03  1.036E+00  6.145E+00  1.844E-02  1.518E+00
   1    5   10     4     1    1.0000E+01  9.0919E-02   9.9091E+00  0.000E+00  0.000E+00  0.000E+00  1.07836E+03  6.368E-01  1.000E+01  2.500E-02  1.212E+00
   1    5    9     4     2    9.9091E+00  1.8158E-01   9.7275E+00  0.000E+00  0.000E+00  0.000E+00  1.07154E+03  6.315E-01  1.000E+01  5.000E-02  1.211E+00
   1    6    8     4     3    9.7275E+00  1.2689E-01   9.6006E+00  0.000E+00  0.000E+00  0.000E+00  1.06381E+03  6.256E-01  1.000E+01  3.500E-02  1.209E+00
   1    6    8     5     1    1.0432E+01  2.2686E-01   1.0205E+01  0.000E+00  0.000E+00  0.000E+00  1.05868E+03  6.790E-01  1.542E+01  6.166E-02  1.226E+00
   1    7    7     5     2    1.0205E+01  2.7894E-01   9.9265E+00  0.000E+00  0.000E+00  0.000E+00  1.05417E+03  6.732E-01  1.519E+01  7.594E-02  1.224E+00
   1    8    7     5     3    9.9265E+00  1.9221E-01   9.7343E+00  0.000E+00  0.000E+00  0.000E+00  1.04992E+03  6.676E-01  1.497E+01  5.241E-02  1.223E+00
   1    8    6     5     4    9.7343E+00  1.3577E-01   9.5985E+00  0.000E+00  0.000E+00  0.000E+00  1.04691E+03  6.637E-01  1.482E+01  3.706E-02  1.221E+00
   1    9    6     6     1    2.2604E+01  2.4874E-01   2.2355E+01  0.000E+00  0.000E+00  0.000E+00  1.04387E+03  1.146E+00  1.200E+01  6.000E-02  1.382E+00
   1   10    7     6     2    2.2355E+01  2.4828E-01   2.2107E+01  0.000E+00  0.000E+00  0.000E+00  1.03932E+03  1.138E+00  1.200E+01  6.000E-02  1.379E+00
   1   11    7     6     3    2.2107E+01  2.4782E-01   2.1859E+01  0.000E+00  0.000E+00  0.000E+00  1.03477E+03  1.130E+00  1.200E+01  6.000E-02  1.377E+00
   1   12    7     6     4    2.1859E+01  2.4736E-01   2.1612E+01  0.000E+00  0.000E+00  0.000E+00  1.03021E+03  1.123E+00  1.200E+01  6.000E-02  1.374E+00
   1   13    7     6     5    2.1612E+01 -3.1429E-02   2.1643E+01  0.000E+00  0.000E+00  0.000E+00  1.02703E+03  1.119E+00  1.200E+01  2.400E-01 -4.365E-02
   1   14    9     7     1    1.5000E+02  1.3342E+00   1.4867E+02  0.000E+00  0.000E+00  0.000E+00  1.03987E+03  2.288E+00  5.529E+01  5.593E-01  7.952E-01
   1   13    8     7     2    1.4867E+02  1.8110E+00   1.4685E+02  0.000E+00  0.000E+00  0.000E+00  1.03478E+03  2.279E+00  5.526E+01  6.148E-01  9.819E-01
   1   13    7     7     3    1.4685E+02  1.4133E+00   1.4544E+02  0.000E+00  0.000E+00  0.000E+00  1.02969E+03  2.271E+00  5.522E+01  5.585E-01  8.436E-01
   1   13    6     8     1    1.6708E+02  8.4178E-01   1.6624E+02  0.000E+00  0.000E+00  0.000E+00  1.02481E+03  2.930E+00  4.249E+01  4.330E-01  6.480E-01
   1   13    5     8     2    1.6624E+02  9.9962E-02   1.6614E+02  0.000E+00  0.000E+00  0.000E+00  1.01855E+03  2.927E+00  4.244E+01  4.325E-01  7.704E-02
   1   13    4     8     3    1.6614E+02 -2.6964E+00   1.6884E+02  0.000E+00  0.000E+00  0.000E+00  1.01231E+03  2.936E+00  4.257E+01  4.338E+00 -2.072E-01
   1   13    3     8     4    1.6884E+02 -3.7688E+00   1.7261E+02  0.000E+00  0.000E+00  0.000E+00  1.00608E+03  2.957E+00  4.288E+01  4.369E+00 -2.875E-01
   1   13    2     8     5    1.7261E+02 -2.6070E+00   1.7522E+02  0.000E+00  0.000E+00  0.000E+00  9.99852E+02  2.977E+00  4.317E+01  4.400E+00 -1.975E-01
   1   13    1     8     6    1.7522E+02 -1.9948E+00   1.7721E+02  0.000E+00  0.000E+00  0.000E+00  9.94867E+02  2.992E+00  4.339E+01  2.653E+00 -2.507E-01
   1    8    6     9     1    0.0000E+00  0.0000E+00   0.0000E+00  0.000E+00  0.000E+00  0.000E+00  1.07875E+03  0.000E+00  4.000E+00  0.000E+00  1.000E+00
   1    8    5     9     2    0.0000E+00  0.0000E+00   0.0000E+00  0.000E+00  0.000E+00  0.000E+00  1.07825E+03  0.000E+00  4.000E+00  0.000E+00  1.000E+00





UNSATURATED ZONE PACKAGE VOLUMETRIC BUDGET FOR  TIME STEP    30 STRESS PERIOD   13
  ------------------------------------------------------------------------------



     CUMULATIVE VOLUMES      L**3       RATES FOR THIS TIME STEP      L**3/T
     ------------------                 ------------------------

           IN:                                      IN:
           ---                                      ---
        INFILTRATION =   139709768.3179          INFILTRATION =           4.4075

          OUT:                                     OUT:
          ----                                     ----
              UZF ET =    99901158.3065                UZF ET =           0.7250
        UZF RECHARGE =       73224.0000          UZF RECHARGE =       0.0000E+00

            IN - OUT =    39735386.0114              IN - OUT =           3.6825

          STORAGE:                                 STORAGE:
          --------                                 --------
      STORAGE CHANGE =    39735385.6348        STORAGE CHANGE =           3.6825

 PERCENT DISCREPANCY IS DIFFERENCE BETWEEN IN-OUT MINUS CHANGE IN STORAGE
 DIVIDED BY THE AVERAGE OF IN AND OUT TIMES 100

 PERCENT DISCREPANCY =           0.00     PERCENT DISCREPANCY =           0.00






1
  VOLUMETRIC BUDGET FOR ENTIRE MODEL AT END OF TIME STEP   30, STRESS PERIOD  13
  ------------------------------------------------------------------------------

     CUMULATIVE VOLUMES      L**3       RATES FOR THIS TIME STEP      L**3/T
     ------------------                 ------------------------

           IN:                                      IN:
           ---                                      ---
               AG WELLS  =           0.0000                 AG WELLS  =           0.0000
        DIVERSION SEGMEN =      535838.9375          DIVERSION SEGMEN =           0.0000
    TS         GW IRRIGA =           0.0000      TS         GW IRRIGA =           0.0000
    TION         SW IRRI =           0.0000      TION         SW IRRI =           0.0000
    GATION      SYSTEM L =           0.0000      GATION      SYSTEM L =           0.0000
    OSSES GW      SYSTEM =           0.0000      OSSES GW      SYSTEM =           0.0000

                TOTAL IN =      535838.9375                  TOTAL IN =           0.0000

          OUT:                                     OUT:
          ----                                     ----
               AG WELLS  =           0.0000                 AG WELLS  =           0.0000
        DIVERSION SEGMEN =           0.0000          DIVERSION SEGMEN =           0.0000
    TS         GW IRRIGA =           0.0000      TS         GW IRRIGA =           0.0000
    TION         SW IRRI =      535849.6250      TION         SW IRRI =           0.0000
    GATION      SYSTEM L =           0.0000      GATION      SYSTEM L =           0.0000
    OSSES GW      SYSTEM =           0.0000      OSSES GW      SYSTEM =           0.0000

               TOTAL OUT =      535849.6250                 TOTAL OUT =           0.0000

                IN - OUT =         -10.6875                  IN - OUT =           0.0000

     PERCENT DISCREPANCY =          -0.00         PERCENT DISCREPANCY =           0.00



1
  VOLUMETRIC BUDGET FOR ENTIRE MODEL AT END OF TIME STEP   30, STRESS PERIOD  13
  ------------------------------------------------------------------------------

     CUMULATIVE VOLUMES      L**3       RATES FOR THIS TIME STEP      L**3/T
     ------------------                 ------------------------

           IN:                                      IN:
           ---                                      ---
             STORAGE     =    19759234.0000               STORAGE     =           0.4760
       CONSTANT HEAD     =           0.0000         CONSTANT HEAD     =           0.0000
     HEAD DEP BOUNDS     =     9041857.0000       HEAD DEP BOUNDS     =           0.2856
      STREAM LEAKAGE     =   381934144.0000        STREAM LEAKAGE     =          11.1383
        UZF RECHARGE     =       73223.9531          UZF RECHARGE     =           0.0000
               GW ET     =           0.0000                 GW ET     =           0.0000
     SURFACE LEAKAGE     =           0.0000       SURFACE LEAKAGE     =           0.0000
           AG WELLS      =           0.0000             AG WELLS      =           0.0000

                TOTAL IN =   410808448.0000                  TOTAL IN =          11.8999

          OUT:                                     OUT:
          ----                                     ----
             STORAGE     =    58482652.0000               STORAGE     =           0.5120
       CONSTANT HEAD     =           0.0000         CONSTANT HEAD     =           0.0000
     HEAD DEP BOUNDS     =     9260832.0000       HEAD DEP BOUNDS     =           0.2895
      STREAM LEAKAGE     =   336383232.0000        STREAM LEAKAGE     =          11.0984
        UZF RECHARGE     =           0.0000          UZF RECHARGE     =           0.0000
               GW ET     =     6692063.5000                 GW ET     =           0.0000
     SURFACE LEAKAGE     =           0.0000       SURFACE LEAKAGE     =           0.0000
           AG WELLS      =           0.0000             AG WELLS      =           0.0000

               TOTAL OUT =   410818784.0000                 TOTAL OUT =          11.8999

                IN - OUT =      -10336.0000                  IN - OUT =      -6.6757E-06

     PERCENT DISCREPANCY =          -0.00         PERCENT DISCREPANCY =          -0.00






         TIME SUMMARY AT END OF TIME STEP   30 IN STRESS PERIOD   13
                    SECONDS     MINUTES      HOURS       DAYS        YEARS
                    -----------------------------------------------------------
   TIME STEP LENGTH  87667.      1461.1      24.352      1.0147     2.77799E-03
 STRESS PERIOD TIME 2.63000E+06  43833.      730.56      30.440     8.33397E-02
         TOTAL TIME 3.16463E+07 5.27439E+05  8790.6      366.28      1.0028    
1
1
                            STRESS PERIOD NO.   14, LENGTH =   2630000.    
                            -----------------------------------------------

                              NUMBER OF TIME STEPS =    30

                               MULTIPLIER FOR DELT =     1.000

                            INITIAL TIME STEP SIZE =   87666.66    

 REUSING NON-PARAMETER GHB CELLS FROM LAST STRESS PERIOD

      2 GHB CELLS

 REUSING STREAM SEGMENT DATA FROM LAST STRESS PERIOD



            AREAL INFILTRATION RATE
 READING ON UNIT   19 WITH FORMAT: (10F4.0)            

            1           2           3           4           5           6           7           8           9          10
 ........................................................................................................................
   1   1.2000E-09   0.000       0.000       0.000       0.000       0.000       0.000       0.000       0.000       0.000    
   2   2.1000E-09  2.0000E-09  8.0000E-10  8.5000E-09   0.000       0.000       0.000       0.000       0.000       0.000    
   3   5.0000E-10  1.1000E-09  8.8000E-09  5.5000E-09   0.000       0.000       0.000       0.000       0.000       0.000    
   4   8.5000E-09  1.1000E-09  1.1000E-09  1.1000E-09  2.0000E-09   0.000       0.000       0.000       0.000       0.000    
   5   8.5000E-09  1.1000E-09  1.1000E-09  1.1000E-09  1.1000E-09   0.000       0.000       0.000       0.000       0.000    
   6   8.5000E-09  5.2000E-09  2.1000E-09  1.1000E-09  1.5000E-09   0.000       0.000       0.000       0.000       0.000    
   7   8.5000E-09  5.2000E-09  2.1000E-09  1.2000E-09  2.0000E-09   0.000       0.000       0.000       0.000       0.000    
   8   5.0000E-10  5.2000E-09  2.1000E-09  1.2000E-09  5.0000E-09   0.000       0.000       0.000       0.000       0.000    
   9   5.0000E-10  5.2000E-09  2.1000E-09  1.2000E-09  5.0000E-09   0.000       0.000       0.000       0.000       0.000    
  10   5.0000E-10  5.2000E-09  2.1000E-09  1.2000E-09  5.8000E-09   0.000       0.000       0.000       0.000       0.000    
  11   1.0000E-10  1.1000E-09  1.1000E-09  1.2000E-09  5.0000E-09   0.000       0.000       0.000       0.000       0.000    
  12   1.1000E-09  1.1000E-09  1.1000E-09  1.1000E-09  2.0000E-09   0.000       0.000       0.000       0.000       0.000    
  13   1.1000E-09  2.2000E-09  2.2000E-09  2.1000E-09  1.0000E-09   0.000       0.000       0.000       0.000       0.000    
  14   2.0000E-10  5.5000E-09  5.5000E-09  5.2000E-09  1.0000E-09   0.000       0.000       0.000       0.000       0.000    
  15    0.000      8.8000E-09  8.8000E-09   0.000       0.000       0.000       0.000       0.000       0.000       0.000    

                  ET RATE =  5.000000E-10

 USING ET EXTINCTION DEPTH FROM PREVIOUS STRESS PERIOD. CURRENT PERIOD IS:      14

 USING EXTINCTION WATER CONTENT FROM PREVIOUS STRESS PERIOD. CURRENT PERIOD IS:      14

 USING AIR ENTRY PRESSURE FROM PREVIOUS STRESS PERIOD. CURRENT PERIOD IS:      14

 USING ROOT PRESSURE HEAD FROM PREVIOUS STRESS PERIOD. CURRENT PERIOD IS:      14

 USING ROOT ACTIVITY FROM PREVIOUS STRESS PERIOD. CURRENT PERIOD IS:      14

 PROCESSING AG STRESS PERIOD DATA

 READING AG STRESS PERIOD DATA

 READING IRRIGATION SEGMENT

 READING IRRIGATION WELL

 READING SUPPLEMENTAL WELL

 END PROCESSING AG STRESS PERIOD DATA OPTIONS
 
 SOLVING FOR HEAD 
                                                   Max.-Head-Change                         Max.-Flux-Residual
  Residual-Control   Outer-Iter.   Inner-Iter.     Column Row Layer    Maximum-Head-Change  Column Row Layer    Maximum-Flux-Residual          L2-NORM 
          0                 1           2             2    1     1       0.1528543358E-02       2    1    1         0.7940487825E-01      0.1590193091E+00
          0                 2           2             2    1     1      -0.1486856936E-03       2    1    1        -0.7940494881E-02      0.1583133544E-01
          0                 3           1             2    1     1       0.1012494457E-04       2    1    1         0.5558348202E-03      0.1101583987E-02

    ------------------------------------------------
       NWT REQUIRED            3 OUTER ITERATIONS 
       AND A TOTAL OF          5 INNER ITERATIONS.
    ------------------------------------------------

 NO OUTPUT CONTROL FOR STRESS PERIOD   14   TIME STEP    1
 
 SOLVING FOR HEAD 
                                                   Max.-Head-Change                         Max.-Flux-Residual
  Residual-Control   Outer-Iter.   Inner-Iter.     Column Row Layer    Maximum-Head-Change  Column Row Layer    Maximum-Flux-Residual          L2-NORM 
          0                 1           2             2    1     1       0.1525166040E-02       2    1    1         0.7926708759E-01      0.1986725018E+00
          0                 2           2             2    1     1      -0.1483571883E-03       2    1    1        -0.7926716841E-02      0.1964732484E-01
          0                 3           1             2    1     1       0.1010257351E-04       2    1    1         0.5548703405E-03      0.1355276871E-02

    ------------------------------------------------
       NWT REQUIRED            3 OUTER ITERATIONS 
       AND A TOTAL OF          5 INNER ITERATIONS.
    ------------------------------------------------

 NO OUTPUT CONTROL FOR STRESS PERIOD   14   TIME STEP    2
 
 SOLVING FOR HEAD 
                                                   Max.-Head-Change                         Max.-Flux-Residual
  Residual-Control   Outer-Iter.   Inner-Iter.     Column Row Layer    Maximum-Head-Change  Column Row Layer    Maximum-Flux-Residual          L2-NORM 
          0                 1           2             2    1     1       0.1521790505E-02       2    1    1         0.7909086199E-01      0.1924838594E+00
          0                 2           2             2    1     1      -0.1480288397E-03       2    1    1        -0.7909094218E-02      0.1905258474E-01
          0                 3           1             2    1     1       0.1008021427E-04       2    1    1         0.5536367562E-03      0.1315339424E-02

    ------------------------------------------------
       NWT REQUIRED            3 OUTER ITERATIONS 
       AND A TOTAL OF          5 INNER ITERATIONS.
    ------------------------------------------------

 NO OUTPUT CONTROL FOR STRESS PERIOD   14   TIME STEP    3
 
 SOLVING FOR HEAD 
                                                   Max.-Head-Change                         Max.-Flux-Residual
  Residual-Control   Outer-Iter.   Inner-Iter.     Column Row Layer    Maximum-Head-Change  Column Row Layer    Maximum-Flux-Residual          L2-NORM 
          0                 1           2             2    1     1       0.1518437982E-02       2    1    1         0.7891584377E-01      0.1869148949E+00
          0                 2           2             2    1     1      -0.1477027299E-03       2    1    1        -0.7891592334E-02      0.1851532633E-01
          0                 3           1             2    1     1       0.1005800745E-04       2    1    1         0.5524116338E-03      0.1279414752E-02

    ------------------------------------------------
       NWT REQUIRED            3 OUTER ITERATIONS 
       AND A TOTAL OF          5 INNER ITERATIONS.
    ------------------------------------------------

 NO OUTPUT CONTROL FOR STRESS PERIOD   14   TIME STEP    4
 
 SOLVING FOR HEAD 
                                                   Max.-Head-Change                         Max.-Flux-Residual
  Residual-Control   Outer-Iter.   Inner-Iter.     Column Row Layer    Maximum-Head-Change  Column Row Layer    Maximum-Flux-Residual          L2-NORM 
          0                 1           2             2    1     1       0.1515129526E-02       2    1    1         0.7874312194E-01      0.1818957175E+00
          0                 2           2             2    1     1      -0.1473809061E-03       2    1    1        -0.7874320092E-02      0.1803307168E-01
          0                 3           1             2    1     1       0.1003609222E-04       2    1    1         0.5512025580E-03      0.1247774595E-02

    ------------------------------------------------
       NWT REQUIRED            3 OUTER ITERATIONS 
       AND A TOTAL OF          5 INNER ITERATIONS.
    ------------------------------------------------

 NO OUTPUT CONTROL FOR STRESS PERIOD   14   TIME STEP    5
 
 SOLVING FOR HEAD 
                                                   Max.-Head-Change                         Max.-Flux-Residual
  Residual-Control   Outer-Iter.   Inner-Iter.     Column Row Layer    Maximum-Head-Change  Column Row Layer    Maximum-Flux-Residual          L2-NORM 
          0                 1           2             2    1     1       0.1511822298E-02       2    1    1         0.7857047855E-01      0.1773593413E+00
          0                 2           2             2    1     1      -0.1470592022E-03       2    1    1        -0.7857055679E-02      0.1759541808E-01
          0                 3           1             2    1     1       0.1001418574E-04       2    1    1         0.5499940625E-03      0.1219061755E-02

    ------------------------------------------------
       NWT REQUIRED            3 OUTER ITERATIONS 
       AND A TOTAL OF          5 INNER ITERATIONS.
    ------------------------------------------------

 NO OUTPUT CONTROL FOR STRESS PERIOD   14   TIME STEP    6
 
 SOLVING FOR HEAD 
                                                   Max.-Head-Change                         Max.-Flux-Residual
  Residual-Control   Outer-Iter.   Inner-Iter.     Column Row Layer    Maximum-Head-Change  Column Row Layer    Maximum-Flux-Residual          L2-NORM 
          0                 1           2             2    1     1       0.1508537384E-02       2    1    1         0.7839900204E-01      0.1732540738E+00
          0                 2           2             2    1     1      -0.1467396687E-03       2    1    1        -0.7839907978E-02      0.1720043786E-01
          0                 3           1             2    1     1       0.9992426711E-05       2    1    1         0.5487937161E-03      0.1192873788E-02

    ------------------------------------------------
       NWT REQUIRED            3 OUTER ITERATIONS 
       AND A TOTAL OF          5 INNER ITERATIONS.
    ------------------------------------------------

 NO OUTPUT CONTROL FOR STRESS PERIOD   14   TIME STEP    7
 
 SOLVING FOR HEAD 
                                                   Max.-Head-Change                         Max.-Flux-Residual
  Residual-Control   Outer-Iter.   Inner-Iter.     Column Row Layer    Maximum-Head-Change  Column Row Layer    Maximum-Flux-Residual          L2-NORM 
          0                 1           2             2    1     1       0.1505295655E-02       2    1    1         0.7822978575E-01      0.1695275976E+00
          0                 2           2             2    1     1      -0.1464243357E-03       2    1    1        -0.7822986276E-02      0.1684076971E-01
          0                 3           1             2    1     1       0.9970953582E-05       2    1    1         0.5476091967E-03      0.1168602436E-02

    ------------------------------------------------
       NWT REQUIRED            3 OUTER ITERATIONS 
       AND A TOTAL OF          5 INNER ITERATIONS.
    ------------------------------------------------

 NO OUTPUT CONTROL FOR STRESS PERIOD   14   TIME STEP    8
 
 SOLVING FOR HEAD 
                                                   Max.-Head-Change                         Max.-Flux-Residual
  Residual-Control   Outer-Iter.   Inner-Iter.     Column Row Layer    Maximum-Head-Change  Column Row Layer    Maximum-Flux-Residual          L2-NORM 
          0                 1           2             2    1     1       0.1502054449E-02       2    1    1         0.7806060198E-01      0.1661316064E+00
          0                 2           2             2    1     1      -0.1461090542E-03       2    1    1        -0.7806067843E-02      0.1651298592E-01
          0                 3           1             2    1     1       0.9949484476E-05       2    1    1         0.5464249230E-03      0.1146424416E-02

    ------------------------------------------------
       NWT REQUIRED            3 OUTER ITERATIONS 
       AND A TOTAL OF          5 INNER ITERATIONS.
    ------------------------------------------------

 NO OUTPUT CONTROL FOR STRESS PERIOD   14   TIME STEP    9
 
 SOLVING FOR HEAD 
                                                   Max.-Head-Change                         Max.-Flux-Residual
  Residual-Control   Outer-Iter.   Inner-Iter.     Column Row Layer    Maximum-Head-Change  Column Row Layer    Maximum-Flux-Residual          L2-NORM 
          0                 1           2             2    1     1       0.1498834820E-02       2    1    1         0.7789254859E-01      0.1630361965E+00
          0                 2           2             2    1     1      -0.1457958710E-03       2    1    1        -0.7789262439E-02      0.1621395608E-01
          0                 3           1             2    1     1       0.9928157611E-05       2    1    1         0.5452485432E-03      0.1126625590E-02

    ------------------------------------------------
       NWT REQUIRED            3 OUTER ITERATIONS 
       AND A TOTAL OF          5 INNER ITERATIONS.
    ------------------------------------------------

 NO OUTPUT CONTROL FOR STRESS PERIOD   14   TIME STEP   10
 
 SOLVING FOR HEAD 
                                                   Max.-Head-Change                         Max.-Flux-Residual
  Residual-Control   Outer-Iter.   Inner-Iter.     Column Row Layer    Maximum-Head-Change  Column Row Layer    Maximum-Flux-Residual          L2-NORM 
          0                 1           2             2    1     1       0.1495636493E-02       2    1    1         0.7772561398E-01      0.1601978009E+00
          0                 2           2             2    1     1      -0.1454847603E-03       2    1    1        -0.7772568930E-02      0.1594009620E-01
          0                 3           1             2    1     1       0.9906972040E-05       2    1    1         0.5440799856E-03      0.1108855141E-02

    ------------------------------------------------
       NWT REQUIRED            3 OUTER ITERATIONS 
       AND A TOTAL OF          5 INNER ITERATIONS.
    ------------------------------------------------

 NO OUTPUT CONTROL FOR STRESS PERIOD   14   TIME STEP   11
 
 SOLVING FOR HEAD 
                                                   Max.-Head-Change                         Max.-Flux-Residual
  Residual-Control   Outer-Iter.   Inner-Iter.     Column Row Layer    Maximum-Head-Change  Column Row Layer    Maximum-Flux-Residual          L2-NORM 
          0                 1           2             2    1     1       0.1492459129E-02       2    1    1         0.7755978388E-01      0.1575922116E+00
          0                 2           2             2    1     1      -0.1451756885E-03       2    1    1        -0.7755985862E-02      0.1568766180E-01
          0                 3           1             2    1     1       0.9885925632E-05       2    1    1         0.5429191721E-03      0.1091766168E-02

    ------------------------------------------------
       NWT REQUIRED            3 OUTER ITERATIONS 
       AND A TOTAL OF          5 INNER ITERATIONS.
    ------------------------------------------------

 NO OUTPUT CONTROL FOR STRESS PERIOD   14   TIME STEP   12
 
 SOLVING FOR HEAD 
                                                   Max.-Head-Change                         Max.-Flux-Residual
  Residual-Control   Outer-Iter.   Inner-Iter.     Column Row Layer    Maximum-Head-Change  Column Row Layer    Maximum-Flux-Residual          L2-NORM 
          0                 1           2             2    1     1       0.1489302612E-02       2    1    1         0.7739504065E-01      0.1551962119E+00
          0                 2           2             2    1     1      -0.1448686443E-03       2    1    1        -0.7739511467E-02      0.1545543033E-01
          0                 3           1             2    1     1       0.9865016969E-05       2    1    1         0.5417659707E-03      0.1075749111E-02

    ------------------------------------------------
       NWT REQUIRED            3 OUTER ITERATIONS 
       AND A TOTAL OF          5 INNER ITERATIONS.
    ------------------------------------------------

 NO OUTPUT CONTROL FOR STRESS PERIOD   14   TIME STEP   13
 
 SOLVING FOR HEAD 
                                                   Max.-Head-Change                         Max.-Flux-Residual
  Residual-Control   Outer-Iter.   Inner-Iter.     Column Row Layer    Maximum-Head-Change  Column Row Layer    Maximum-Flux-Residual          L2-NORM 
          0                 1           2             2    1     1       0.1486166775E-02       2    1    1         0.7723137834E-01      0.1529765043E+00
          0                 2           2             2    1     1      -0.1445636119E-03       2    1    1        -0.7723145183E-02      0.1524397059E-01
          0                 3           1             2    1     1       0.9844245339E-05       2    1    1         0.5406203176E-03      0.1066308498E-02

    ------------------------------------------------
       NWT REQUIRED            3 OUTER ITERATIONS 
       AND A TOTAL OF          5 INNER ITERATIONS.
    ------------------------------------------------

 NO OUTPUT CONTROL FOR STRESS PERIOD   14   TIME STEP   14
 
 SOLVING FOR HEAD 
                                                   Max.-Head-Change                         Max.-Flux-Residual
  Residual-Control   Outer-Iter.   Inner-Iter.     Column Row Layer    Maximum-Head-Change  Column Row Layer    Maximum-Flux-Residual          L2-NORM 
          0                 1           2             2    1     1       0.1483072521E-02       2    1    1         0.7706989191E-01      0.1509193413E+00
          0                 2           2             2    1     1      -0.1442626244E-03       2    1    1        -0.7706996479E-02      0.1504001829E-01
          0                 3           1             2    1     1       0.9823749434E-05       2    1    1         0.5394899089E-03      0.1048043684E-02

    ------------------------------------------------
       NWT REQUIRED            3 OUTER ITERATIONS 
       AND A TOTAL OF          5 INNER ITERATIONS.
    ------------------------------------------------

 NO OUTPUT CONTROL FOR STRESS PERIOD   14   TIME STEP   15
 
 SOLVING FOR HEAD 
                                                   Max.-Head-Change                         Max.-Flux-Residual
  Residual-Control   Outer-Iter.   Inner-Iter.     Column Row Layer    Maximum-Head-Change  Column Row Layer    Maximum-Flux-Residual          L2-NORM 
          0                 1           2             2    1     1       0.1479977127E-02       2    1    1         0.7690835422E-01      0.1490030702E+00
          0                 2           2             2    1     1      -0.1439615262E-03       2    1    1        -0.7690842657E-02      0.1485400271E-01
          0                 3           1             2    1     1       0.9803245718E-05       2    1    1         0.5383591385E-03      0.1035370907E-02

    ------------------------------------------------
       NWT REQUIRED            3 OUTER ITERATIONS 
       AND A TOTAL OF          5 INNER ITERATIONS.
    ------------------------------------------------

 NO OUTPUT CONTROL FOR STRESS PERIOD   14   TIME STEP   16
 
 SOLVING FOR HEAD 
                                                   Max.-Head-Change                         Max.-Flux-Residual
  Residual-Control   Outer-Iter.   Inner-Iter.     Column Row Layer    Maximum-Head-Change  Column Row Layer    Maximum-Flux-Residual          L2-NORM 
          0                 1           2             2    1     1       0.1476901626E-02       2    1    1         0.7674786111E-01      0.1472181030E+00
          0                 2           2             2    1     1      -0.1436623629E-03       2    1    1        -0.7674793289E-02      0.1468014484E-01
          0                 3           1             2    1     1       0.9782873830E-05       2    1    1         0.5372356811E-03      0.1023749001E-02

    ------------------------------------------------
       NWT REQUIRED            3 OUTER ITERATIONS 
       AND A TOTAL OF          5 INNER ITERATIONS.
    ------------------------------------------------

 NO OUTPUT CONTROL FOR STRESS PERIOD   14   TIME STEP   17
 
 SOLVING FOR HEAD 
                                                   Max.-Head-Change                         Max.-Flux-Residual
  Residual-Control   Outer-Iter.   Inner-Iter.     Column Row Layer    Maximum-Head-Change  Column Row Layer    Maximum-Flux-Residual          L2-NORM 
          0                 1           2             2    1     1       0.1473845891E-02       2    1    1         0.7658839939E-01      0.1455437528E+00
          0                 2           2             2    1     1      -0.1433651228E-03       2    1    1        -0.7658847072E-02      0.1451706570E-01
          0                 3           1             2    1     1       0.9762633058E-05       2    1    1         0.5361194615E-03      0.1012617907E-02

    ------------------------------------------------
       NWT REQUIRED            3 OUTER ITERATIONS 
       AND A TOTAL OF          5 INNER ITERATIONS.
    ------------------------------------------------

 NO OUTPUT CONTROL FOR STRESS PERIOD   14   TIME STEP   18
 
 SOLVING FOR HEAD 
                                                   Max.-Head-Change                         Max.-Flux-Residual
  Residual-Control   Outer-Iter.   Inner-Iter.     Column Row Layer    Maximum-Head-Change  Column Row Layer    Maximum-Flux-Residual          L2-NORM 
          0                 1           2             2    1     1       0.1470809630E-02       2    1    1         0.7642996249E-01      0.1439732687E+00
          0                 2           2             2    1     1      -0.1430697763E-03       2    1    1        -0.7643003321E-02      0.1436267202E-01
          0                 3           1             2    1     1       0.9742520800E-05       2    1    1         0.5350103835E-03      0.1002083626E-02

    ------------------------------------------------
       NWT REQUIRED            3 OUTER ITERATIONS 
       AND A TOTAL OF          5 INNER ITERATIONS.
    ------------------------------------------------

 NO OUTPUT CONTROL FOR STRESS PERIOD   14   TIME STEP   19
 
 SOLVING FOR HEAD 
                                                   Max.-Head-Change                         Max.-Flux-Residual
  Residual-Control   Outer-Iter.   Inner-Iter.     Column Row Layer    Maximum-Head-Change  Column Row Layer    Maximum-Flux-Residual          L2-NORM 
          0                 1           2             2    1     1       0.1467792696E-02       2    1    1         0.7627253535E-01      0.1424927192E+00
          0                 2           2             2    1     1      -0.1427763099E-03       2    1    1        -0.7627260541E-02      0.1421906860E-01
          0                 3           1             2    1     1       0.9722536819E-05       2    1    1         0.5339083890E-03      0.9928976081E-03

    ------------------------------------------------
       NWT REQUIRED            3 OUTER ITERATIONS 
       AND A TOTAL OF          5 INNER ITERATIONS.
    ------------------------------------------------

 NO OUTPUT CONTROL FOR STRESS PERIOD   14   TIME STEP   20
 
 SOLVING FOR HEAD 
                                                   Max.-Head-Change                         Max.-Flux-Residual
  Residual-Control   Outer-Iter.   Inner-Iter.     Column Row Layer    Maximum-Head-Change  Column Row Layer    Maximum-Flux-Residual          L2-NORM 
          0                 1           2             2    1     1       0.1464773539E-02       2    1    1         0.7611500638E-01      0.1410995646E+00
          0                 2           2             2    1     1      -0.1424826279E-03       2    1    1        -0.7611507613E-02      0.1408233641E-01
          0                 3           1             2    1     1       0.9702538164E-05       2    1    1         0.5328056902E-03      0.9830777610E-03

    ------------------------------------------------
       NWT REQUIRED            3 OUTER ITERATIONS 
       AND A TOTAL OF          5 INNER ITERATIONS.
    ------------------------------------------------

 NO OUTPUT CONTROL FOR STRESS PERIOD   14   TIME STEP   21
 
 SOLVING FOR HEAD 
                                                   Max.-Head-Change                         Max.-Flux-Residual
  Residual-Control   Outer-Iter.   Inner-Iter.     Column Row Layer    Maximum-Head-Change  Column Row Layer    Maximum-Flux-Residual          L2-NORM 
          0                 1           2             2    1     1       0.1461794601E-02       2    1    1         0.7595956994E-01      0.1397824462E+00
          0                 2           2             2    1     1      -0.1421928570E-03       2    1    1        -0.7595963886E-02      0.1395319185E-01
          0                 3           1             2    1     1       0.9682806240E-05       2    1    1         0.5317176331E-03      0.9743315714E-03

    ------------------------------------------------
       NWT REQUIRED            3 OUTER ITERATIONS 
       AND A TOTAL OF          5 INNER ITERATIONS.
    ------------------------------------------------

 NO OUTPUT CONTROL FOR STRESS PERIOD   14   TIME STEP   22
 
 SOLVING FOR HEAD 
                                                   Max.-Head-Change                         Max.-Flux-Residual
  Residual-Control   Outer-Iter.   Inner-Iter.     Column Row Layer    Maximum-Head-Change  Column Row Layer    Maximum-Flux-Residual          L2-NORM 
          0                 1           2             2    1     1       0.1458834491E-02       2    1    1         0.7580511495E-01      0.1385213292E+00
          0                 2           2             2    1     1      -0.1419049189E-03       2    1    1        -0.7580518364E-02      0.1382925426E-01
          0                 3           1             2    1     1       0.9663198570E-05       2    1    1         0.5306364494E-03      0.9657464175E-03

    ------------------------------------------------
       NWT REQUIRED            3 OUTER ITERATIONS 
       AND A TOTAL OF          5 INNER ITERATIONS.
    ------------------------------------------------

 NO OUTPUT CONTROL FOR STRESS PERIOD   14   TIME STEP   23
 
 SOLVING FOR HEAD 
                                                   Max.-Head-Change                         Max.-Flux-Residual
  Residual-Control   Outer-Iter.   Inner-Iter.     Column Row Layer    Maximum-Head-Change  Column Row Layer    Maximum-Flux-Residual          L2-NORM 
          0                 1           2             2    1     1       0.1455892769E-02       2    1    1         0.7565163611E-01      0.1373280516E+00
          0                 2           2             2    1     1      -0.1416187684E-03       2    1    1        -0.7565170425E-02      0.1371249797E-01
          0                 3           1             2    1     1       0.9643712786E-05       2    1    1         0.5295620754E-03      0.9580606823E-03

    ------------------------------------------------
       NWT REQUIRED            3 OUTER ITERATIONS 
       AND A TOTAL OF          5 INNER ITERATIONS.
    ------------------------------------------------

 NO OUTPUT CONTROL FOR STRESS PERIOD   14   TIME STEP   24
 
 SOLVING FOR HEAD 
                                                   Max.-Head-Change                         Max.-Flux-Residual
  Residual-Control   Outer-Iter.   Inner-Iter.     Column Row Layer    Maximum-Head-Change  Column Row Layer    Maximum-Flux-Residual          L2-NORM 
          0                 1           2             2    1     1       0.1452969360E-02       2    1    1         0.7549911074E-01      0.1361940949E+00
          0                 2           2             2    1     1      -0.1413344001E-03       2    1    1        -0.7549917851E-02      0.1360060918E-01
          0                 3           1             2    1     1       0.9624348416E-05       2    1    1         0.5284944093E-03      0.9502494483E-03

    ------------------------------------------------
       NWT REQUIRED            3 OUTER ITERATIONS 
       AND A TOTAL OF          5 INNER ITERATIONS.
    ------------------------------------------------

 NO OUTPUT CONTROL FOR STRESS PERIOD   14   TIME STEP   25
 
 SOLVING FOR HEAD 
                                                   Max.-Head-Change                         Max.-Flux-Residual
  Residual-Control   Outer-Iter.   Inner-Iter.     Column Row Layer    Maximum-Head-Change  Column Row Layer    Maximum-Flux-Residual          L2-NORM 
          0                 1           2             2    1     1       0.1450064034E-02       2    1    1         0.7534753483E-01      0.1351104687E+00
          0                 2           2             2    1     1      -0.1410517902E-03       2    1    1        -0.7534760199E-02      0.1349392289E-01
          0                 3           1             2    1     1       0.9605104039E-05       2    1    1         0.5274333797E-03      0.9430891449E-03

    ------------------------------------------------
       NWT REQUIRED            3 OUTER ITERATIONS 
       AND A TOTAL OF          5 INNER ITERATIONS.
    ------------------------------------------------

 NO OUTPUT CONTROL FOR STRESS PERIOD   14   TIME STEP   26
 
 SOLVING FOR HEAD 
                                                   Max.-Head-Change                         Max.-Flux-Residual
  Residual-Control   Outer-Iter.   Inner-Iter.     Column Row Layer    Maximum-Head-Change  Column Row Layer    Maximum-Flux-Residual          L2-NORM 
          0                 1           2             2    1     1       0.1447176624E-02       2    1    1         0.7519689656E-01      0.1340767239E+00
          0                 2           2             2    1     1      -0.1407709230E-03       2    1    1        -0.7519696319E-02      0.1339318029E-01
          0                 3           1             2    1     1       0.9585977761E-05       2    1    1         0.5263789052E-03      0.9360482645E-03

    ------------------------------------------------
       NWT REQUIRED            3 OUTER ITERATIONS 
       AND A TOTAL OF          5 INNER ITERATIONS.
    ------------------------------------------------

 NO OUTPUT CONTROL FOR STRESS PERIOD   14   TIME STEP   27
 
 SOLVING FOR HEAD 
                                                   Max.-Head-Change                         Max.-Flux-Residual
  Residual-Control   Outer-Iter.   Inner-Iter.     Column Row Layer    Maximum-Head-Change  Column Row Layer    Maximum-Flux-Residual          L2-NORM 
          0                 1           2             2    1     1       0.1444285660E-02       2    1    1         0.7504608290E-01      0.1330812394E+00
          0                 2           2             2    1     1      -0.1404897104E-03       2    1    1        -0.7504614904E-02      0.1329363038E-01
          0                 3           1             2    1     1       0.9566828290E-05       2    1    1         0.5253232123E-03      0.9293131970E-03

    ------------------------------------------------
       NWT REQUIRED            3 OUTER ITERATIONS 
       AND A TOTAL OF          5 INNER ITERATIONS.
    ------------------------------------------------

 NO OUTPUT CONTROL FOR STRESS PERIOD   14   TIME STEP   28
 
 SOLVING FOR HEAD 
                                                   Max.-Head-Change                         Max.-Flux-Residual
  Residual-Control   Outer-Iter.   Inner-Iter.     Column Row Layer    Maximum-Head-Change  Column Row Layer    Maximum-Flux-Residual          L2-NORM 
          0                 1           2             2    1     1       0.1441433522E-02       2    1    1         0.7489729352E-01      0.1321272581E+00
          0                 2           2             2    1     1      -0.1402122743E-03       2    1    1        -0.7489735911E-02      0.1319966544E-01
          0                 3           1             2    1     1       0.9547936083E-05       2    1    1         0.5242816832E-03      0.9227591919E-03

    ------------------------------------------------
       NWT REQUIRED            3 OUTER ITERATIONS 
       AND A TOTAL OF          5 INNER ITERATIONS.
    ------------------------------------------------

 NO OUTPUT CONTROL FOR STRESS PERIOD   14   TIME STEP   29
 
 SOLVING FOR HEAD 
                                                   Max.-Head-Change                         Max.-Flux-Residual
  Residual-Control   Outer-Iter.   Inner-Iter.     Column Row Layer    Maximum-Head-Change  Column Row Layer    Maximum-Flux-Residual          L2-NORM 
          0                 1           2             2    1     1       0.1438598792E-02       2    1    1         0.7474941296E-01      0.1312086910E+00
          0                 2           2             2    1     1      -0.1399365321E-03       2    1    1        -0.7474947808E-02      0.1310851294E-01
          0                 3           1             2    1     1       0.9529159372E-05       2    1    1         0.5232465370E-03      0.9164830319E-03

    ------------------------------------------------
       NWT REQUIRED            3 OUTER ITERATIONS 
       AND A TOTAL OF          5 INNER ITERATIONS.
    ------------------------------------------------

 NO OUTPUT CONTROL FOR STRESS PERIOD   14   TIME STEP   30



 STREAM LISTING     PERIOD     14   STEP       30

 LAYER ROW COL. STREAM  RCH.  FLOW INTO     FLOW TO   FLOW OUT OF   OVRLND.     DIRECT     STREAM       STREAM     STREAM     STREAM   STREAMBED  STREAMBED
                SEG.NO.  NO.  STRM. RCH.    AQUIFER    STRM. RCH.    RUNOFF     PRECIP       ET          HEAD       DEPTH      WIDTH   CONDCTNC.   GRADIENT

   1    1    1     1     1    1.4250E+01  1.8169E-01   1.4069E+01  0.000E+00  0.000E+00  0.000E+00  1.09404E+03  9.953E-01  1.011E+01  4.548E-02  1.332E+00
   1    2    2     1     2    1.4069E+01  2.7999E-01   1.3789E+01  0.000E+00  0.000E+00  0.000E+00  1.08905E+03  9.906E-01  1.002E+01  7.016E-02  1.330E+00
   1    3    3     1     3    1.3789E+01  2.3745E-01   1.3551E+01  0.000E+00  0.000E+00  0.000E+00  1.08340E+03  9.853E-01  9.930E+00  5.958E-02  1.328E+00
   1    3    4     1     4    1.3551E+01  2.1755E-01   1.3334E+01  0.000E+00  0.000E+00  0.000E+00  1.07839E+03  9.805E-01  9.848E+00  5.465E-02  1.327E+00
   1    4    5     2     1    1.1334E+01  2.9214E-01   1.1041E+01  0.000E+00  0.000E+00  0.000E+00  1.07268E+03  7.454E-01  1.200E+01  7.800E-02  1.248E+00
   1    5    6     2     2    1.1041E+01  2.2410E-01   1.0817E+01  0.000E+00  0.000E+00  0.000E+00  1.06724E+03  7.350E-01  1.200E+01  6.000E-02  1.245E+00
   1    6    6     2     3    1.0817E+01  2.2356E-01   1.0594E+01  0.000E+00  0.000E+00  0.000E+00  1.06252E+03  7.260E-01  1.200E+01  6.000E-02  1.242E+00
   1    7    6     2     4    1.0594E+01  2.2301E-01   1.0371E+01  0.000E+00  0.000E+00  0.000E+00  1.05779E+03  7.168E-01  1.200E+01  6.000E-02  1.239E+00
   1    8    6     2     5    1.0371E+01  2.2246E-01   1.0148E+01  0.000E+00  0.000E+00  0.000E+00  1.05307E+03  7.077E-01  1.200E+01  6.000E-02  1.236E+00
   1    3    5     3     1    2.0000E+00  2.8252E-01   1.7175E+00  0.000E+00  0.000E+00  0.000E+00  1.07555E+03  1.909E+00  9.636E+00  7.227E-02  1.955E+00
   1    3    6     3     2    1.7175E+00  2.4905E-01   1.4684E+00  0.000E+00  0.000E+00  0.000E+00  1.07264E+03  1.727E+00  8.909E+00  6.682E-02  1.864E+00
   1    3    7     3     3    1.4684E+00  1.9718E-01   1.2712E+00  0.000E+00  0.000E+00  0.000E+00  1.06987E+03  1.555E+00  8.218E+00  5.547E-02  1.777E+00
   1    4    8     3     4    1.2712E+00  2.2567E-01   1.0456E+00  0.000E+00  0.000E+00  0.000E+00  1.06682E+03  1.364E+00  7.455E+00  6.709E-02  1.682E+00
   1    5    8     3     5    1.0456E+00  1.5790E-01   8.8768E-01  0.000E+00  0.000E+00  0.000E+00  1.06362E+03  1.164E+00  6.655E+00  4.991E-02  1.582E+00
   1    6    8     3     6    8.8768E-01  5.5980E-02   8.3170E-01  0.000E+00  0.000E+00  0.000E+00  1.06158E+03  1.036E+00  6.145E+00  1.844E-02  1.518E+00
   1    5   10     4     1    1.0000E+01  9.0919E-02   9.9091E+00  0.000E+00  0.000E+00  0.000E+00  1.07836E+03  6.368E-01  1.000E+01  2.500E-02  1.212E+00
   1    5    9     4     2    9.9091E+00  1.8158E-01   9.7275E+00  0.000E+00  0.000E+00  0.000E+00  1.07154E+03  6.315E-01  1.000E+01  5.000E-02  1.211E+00
   1    6    8     4     3    9.7275E+00  1.2689E-01   9.6006E+00  0.000E+00  0.000E+00  0.000E+00  1.06381E+03  6.256E-01  1.000E+01  3.500E-02  1.209E+00
   1    6    8     5     1    1.0432E+01  2.2686E-01   1.0205E+01  0.000E+00  0.000E+00  0.000E+00  1.05868E+03  6.790E-01  1.542E+01  6.166E-02  1.226E+00
   1    7    7     5     2    1.0205E+01  2.7894E-01   9.9265E+00  0.000E+00  0.000E+00  0.000E+00  1.05417E+03  6.732E-01  1.519E+01  7.594E-02  1.224E+00
   1    8    7     5     3    9.9265E+00  1.9221E-01   9.7343E+00  0.000E+00  0.000E+00  0.000E+00  1.04992E+03  6.676E-01  1.497E+01  5.241E-02  1.223E+00
   1    8    6     5     4    9.7343E+00  1.3577E-01   9.5985E+00  0.000E+00  0.000E+00  0.000E+00  1.04691E+03  6.637E-01  1.482E+01  3.706E-02  1.221E+00
   1    9    6     6     1    1.9747E+01  2.4336E-01   1.9503E+01  0.000E+00  0.000E+00  0.000E+00  1.04378E+03  1.056E+00  1.200E+01  6.000E-02  1.352E+00
   1   10    7     6     2    1.9503E+01  2.4289E-01   1.9261E+01  0.000E+00  0.000E+00  0.000E+00  1.03923E+03  1.048E+00  1.200E+01  6.000E-02  1.349E+00
   1   11    7     6     3    1.9261E+01  2.4241E-01   1.9018E+01  0.000E+00  0.000E+00  0.000E+00  1.03468E+03  1.040E+00  1.200E+01  6.000E-02  1.347E+00
   1   12    7     6     4    1.9018E+01  2.4194E-01   1.8776E+01  0.000E+00  0.000E+00  0.000E+00  1.03012E+03  1.032E+00  1.200E+01  6.000E-02  1.344E+00
   1   13    7     6     5    1.8776E+01 -4.9699E-02   1.8826E+01  0.000E+00  0.000E+00  0.000E+00  1.02694E+03  1.029E+00  1.200E+01  2.400E-01 -6.903E-02
   1   14    9     7     1    1.5000E+02  1.3340E+00   1.4867E+02  0.000E+00  0.000E+00  0.000E+00  1.03987E+03  2.288E+00  5.529E+01  5.593E-01  7.950E-01
   1   13    8     7     2    1.4867E+02  1.8129E+00   1.4685E+02  0.000E+00  0.000E+00  0.000E+00  1.03478E+03  2.279E+00  5.526E+01  6.148E-01  9.830E-01
   1   13    7     7     3    1.4685E+02  1.4212E+00   1.4543E+02  0.000E+00  0.000E+00  0.000E+00  1.02969E+03  2.271E+00  5.522E+01  5.585E-01  8.483E-01
   1   13    6     8     1    1.6426E+02  8.3473E-01   1.6342E+02  0.000E+00  0.000E+00  0.000E+00  1.02479E+03  2.912E+00  4.222E+01  4.302E-01  6.467E-01
   1   13    5     8     2    1.6342E+02  9.6841E-02   1.6333E+02  0.000E+00  0.000E+00  0.000E+00  1.01853E+03  2.909E+00  4.217E+01  4.298E-01  7.511E-02
   1   13    4     8     3    1.6333E+02 -2.7024E+00   1.6603E+02  0.000E+00  0.000E+00  0.000E+00  1.01229E+03  2.917E+00  4.230E+01  4.310E+00 -2.090E-01
   1   13    3     8     4    1.6603E+02 -3.7710E+00   1.6980E+02  0.000E+00  0.000E+00  0.000E+00  1.00606E+03  2.939E+00  4.261E+01  4.342E+00 -2.895E-01
   1   13    2     8     5    1.6980E+02 -2.6096E+00   1.7241E+02  0.000E+00  0.000E+00  0.000E+00  9.99834E+02  2.959E+00  4.291E+01  4.373E+00 -1.989E-01
   1   13    1     8     6    1.7241E+02 -1.9949E+00   1.7440E+02  0.000E+00  0.000E+00  0.000E+00  9.94849E+02  2.974E+00  4.313E+01  2.637E+00 -2.522E-01
   1    8    6     9     1    0.0000E+00  0.0000E+00   0.0000E+00  0.000E+00  0.000E+00  0.000E+00  1.07875E+03  0.000E+00  4.000E+00  0.000E+00  1.000E+00
   1    8    5     9     2    0.0000E+00  0.0000E+00   0.0000E+00  0.000E+00  0.000E+00  0.000E+00  1.07825E+03  0.000E+00  4.000E+00  0.000E+00  1.000E+00





UNSATURATED ZONE PACKAGE VOLUMETRIC BUDGET FOR  TIME STEP    30 STRESS PERIOD   14
  ------------------------------------------------------------------------------



     CUMULATIVE VOLUMES      L**3       RATES FOR THIS TIME STEP      L**3/T
     ------------------                 ------------------------

           IN:                                      IN:
           ---                                      ---
        INFILTRATION =   151301492.8760          INFILTRATION =           4.4075

          OUT:                                     OUT:
          ----                                     ----
              UZF ET =   101807908.1790                UZF ET =           0.7250
        UZF RECHARGE =       73224.0000          UZF RECHARGE =       0.0000E+00

            IN - OUT =    49420360.6970              IN - OUT =           3.6825

          STORAGE:                                 STORAGE:
          --------                                 --------
      STORAGE CHANGE =    49420360.2540        STORAGE CHANGE =           3.6825

 PERCENT DISCREPANCY IS DIFFERENCE BETWEEN IN-OUT MINUS CHANGE IN STORAGE
 DIVIDED BY THE AVERAGE OF IN AND OUT TIMES 100

 PERCENT DISCREPANCY =           0.00     PERCENT DISCREPANCY =           0.00






1
  VOLUMETRIC BUDGET FOR ENTIRE MODEL AT END OF TIME STEP   30, STRESS PERIOD  14
  ------------------------------------------------------------------------------

     CUMULATIVE VOLUMES      L**3       RATES FOR THIS TIME STEP      L**3/T
     ------------------                 ------------------------

           IN:                                      IN:
           ---                                      ---
               AG WELLS  =           0.0000                 AG WELLS  =           0.0000
        DIVERSION SEGMEN =      535838.9375          DIVERSION SEGMEN =           0.0000
    TS         GW IRRIGA =           0.0000      TS         GW IRRIGA =           0.0000
    TION         SW IRRI =           0.0000      TION         SW IRRI =           0.0000
    GATION      SYSTEM L =           0.0000      GATION      SYSTEM L =           0.0000
    OSSES GW      SYSTEM =           0.0000      OSSES GW      SYSTEM =           0.0000

                TOTAL IN =      535838.9375                  TOTAL IN =           0.0000

          OUT:                                     OUT:
          ----                                     ----
               AG WELLS  =           0.0000                 AG WELLS  =           0.0000
        DIVERSION SEGMEN =           0.0000          DIVERSION SEGMEN =           0.0000
    TS         GW IRRIGA =           0.0000      TS         GW IRRIGA =           0.0000
    TION         SW IRRI =      535849.6250      TION         SW IRRI =           0.0000
    GATION      SYSTEM L =           0.0000      GATION      SYSTEM L =           0.0000
    OSSES GW      SYSTEM =           0.0000      OSSES GW      SYSTEM =           0.0000

               TOTAL OUT =      535849.6250                 TOTAL OUT =           0.0000

                IN - OUT =         -10.6875                  IN - OUT =           0.0000

     PERCENT DISCREPANCY =          -0.00         PERCENT DISCREPANCY =           0.00



1
  VOLUMETRIC BUDGET FOR ENTIRE MODEL AT END OF TIME STEP   30, STRESS PERIOD  14
  ------------------------------------------------------------------------------

     CUMULATIVE VOLUMES      L**3       RATES FOR THIS TIME STEP      L**3/T
     ------------------                 ------------------------

           IN:                                      IN:
           ---                                      ---
             STORAGE     =    21444608.0000               STORAGE     =           0.5330
       CONSTANT HEAD     =           0.0000         CONSTANT HEAD     =           0.0000
     HEAD DEP BOUNDS     =     9793094.0000       HEAD DEP BOUNDS     =           0.2856
      STREAM LEAKAGE     =   410779680.0000        STREAM LEAKAGE     =          10.9736
        UZF RECHARGE     =       73223.9531          UZF RECHARGE     =           0.0000
               GW ET     =           0.0000                 GW ET     =           0.0000
     SURFACE LEAKAGE     =           0.0000       SURFACE LEAKAGE     =           0.0000
           AG WELLS      =           0.0000             AG WELLS      =           0.0000

                TOTAL IN =   442090592.0000                  TOTAL IN =          11.7923

          OUT:                                     OUT:
          ----                                     ----
             STORAGE     =    59570164.0000               STORAGE     =           0.3756
       CONSTANT HEAD     =           0.0000         CONSTANT HEAD     =           0.0000
     HEAD DEP BOUNDS     =    10021474.0000       HEAD DEP BOUNDS     =           0.2890
      STREAM LEAKAGE     =   365816992.0000        STREAM LEAKAGE     =          11.1276
        UZF RECHARGE     =           0.0000          UZF RECHARGE     =           0.0000
               GW ET     =     6692063.5000                 GW ET     =           0.0000
     SURFACE LEAKAGE     =           0.0000       SURFACE LEAKAGE     =           0.0000
           AG WELLS      =           0.0000             AG WELLS      =           0.0000

               TOTAL OUT =   442100704.0000                 TOTAL OUT =          11.7922

                IN - OUT =      -10112.0000                  IN - OUT =       4.9591E-05

     PERCENT DISCREPANCY =          -0.00         PERCENT DISCREPANCY =           0.00






         TIME SUMMARY AT END OF TIME STEP   30 IN STRESS PERIOD   14
                    SECONDS     MINUTES      HOURS       DAYS        YEARS
                    -----------------------------------------------------------
   TIME STEP LENGTH  87667.      1461.1      24.352      1.0147     2.77799E-03
 STRESS PERIOD TIME 2.63000E+06  43833.      730.56      30.440     8.33397E-02
         TOTAL TIME 3.42763E+07 5.71272E+05  9521.2      396.72      1.0862    
1
1
                            STRESS PERIOD NO.   15, LENGTH =   2630000.    
                            -----------------------------------------------

                              NUMBER OF TIME STEPS =    30

                               MULTIPLIER FOR DELT =     1.000

                            INITIAL TIME STEP SIZE =   87666.66    

 REUSING NON-PARAMETER GHB CELLS FROM LAST STRESS PERIOD

      2 GHB CELLS

 REUSING STREAM SEGMENT DATA FROM LAST STRESS PERIOD



            AREAL INFILTRATION RATE
 READING ON UNIT   19 WITH FORMAT: (10F4.0)            

            1           2           3           4           5           6           7           8           9          10
 ........................................................................................................................
   1   1.2000E-09   0.000       0.000       0.000       0.000       0.000       0.000       0.000       0.000       0.000    
   2   2.1000E-09  2.0000E-09  8.0000E-10  8.5000E-09   0.000       0.000       0.000       0.000       0.000       0.000    
   3   5.0000E-10  1.1000E-09  8.8000E-09  5.5000E-09   0.000       0.000       0.000       0.000       0.000       0.000    
   4   8.5000E-09  1.1000E-09  1.1000E-09  1.1000E-09  2.0000E-09   0.000       0.000       0.000       0.000       0.000    
   5   8.5000E-09  1.1000E-09  1.1000E-09  1.1000E-09  1.1000E-09   0.000       0.000       0.000       0.000       0.000    
   6   8.5000E-09  5.2000E-09  2.1000E-09  1.1000E-09  1.5000E-09   0.000       0.000       0.000       0.000       0.000    
   7   8.5000E-09  5.2000E-09  2.1000E-09  1.2000E-09  2.0000E-09   0.000       0.000       0.000       0.000       0.000    
   8   5.0000E-10  5.2000E-09  2.1000E-09  1.2000E-09  5.0000E-09   0.000       0.000       0.000       0.000       0.000    
   9   5.0000E-10  5.2000E-09  2.1000E-09  1.2000E-09  5.0000E-09   0.000       0.000       0.000       0.000       0.000    
  10   5.0000E-10  5.2000E-09  2.1000E-09  1.2000E-09  5.8000E-09   0.000       0.000       0.000       0.000       0.000    
  11   1.0000E-10  1.1000E-09  1.1000E-09  1.2000E-09  5.0000E-09   0.000       0.000       0.000       0.000       0.000    
  12   1.1000E-09  1.1000E-09  1.1000E-09  1.1000E-09  2.0000E-09   0.000       0.000       0.000       0.000       0.000    
  13   1.1000E-09  2.2000E-09  2.2000E-09  2.1000E-09  1.0000E-09   0.000       0.000       0.000       0.000       0.000    
  14   2.0000E-10  5.5000E-09  5.5000E-09  5.2000E-09  1.0000E-09   0.000       0.000       0.000       0.000       0.000    
  15    0.000      8.8000E-09  8.8000E-09   0.000       0.000       0.000       0.000       0.000       0.000       0.000    

                  ET RATE =  5.000000E-10

 USING ET EXTINCTION DEPTH FROM PREVIOUS STRESS PERIOD. CURRENT PERIOD IS:      15

 USING EXTINCTION WATER CONTENT FROM PREVIOUS STRESS PERIOD. CURRENT PERIOD IS:      15

 USING AIR ENTRY PRESSURE FROM PREVIOUS STRESS PERIOD. CURRENT PERIOD IS:      15

 USING ROOT PRESSURE HEAD FROM PREVIOUS STRESS PERIOD. CURRENT PERIOD IS:      15

 USING ROOT ACTIVITY FROM PREVIOUS STRESS PERIOD. CURRENT PERIOD IS:      15

 PROCESSING AG STRESS PERIOD DATA

 READING AG STRESS PERIOD DATA

 READING IRRIGATION SEGMENT

 READING IRRIGATION WELL

 READING SUPPLEMENTAL WELL

 END PROCESSING AG STRESS PERIOD DATA OPTIONS
 
 SOLVING FOR HEAD 
                                                   Max.-Head-Change                         Max.-Flux-Residual
  Residual-Control   Outer-Iter.   Inner-Iter.     Column Row Layer    Maximum-Head-Change  Column Row Layer    Maximum-Flux-Residual          L2-NORM 
          0                 1           2             2    1     1       0.1435781188E-02       2    1    1         0.7460243503E-01      0.1303285464E+00
          0                 2           2             2    1     1      -0.1396624551E-03       2    1    1        -0.7460249983E-02      0.1302165549E-01
          0                 3           1             2    1     1       0.9510495318E-05       2    1    1         0.5222176540E-03      0.9104421229E-03

    ------------------------------------------------
       NWT REQUIRED            3 OUTER ITERATIONS 
       AND A TOTAL OF          5 INNER ITERATIONS.
    ------------------------------------------------

 NO OUTPUT CONTROL FOR STRESS PERIOD   15   TIME STEP    1
 
 SOLVING FOR HEAD 
                                                   Max.-Head-Change                         Max.-Flux-Residual
  Residual-Control   Outer-Iter.   Inner-Iter.     Column Row Layer    Maximum-Head-Change  Column Row Layer    Maximum-Flux-Residual          L2-NORM 
          0                 1           2             2    1     1       0.1433318837E-02       2    1    1         0.7445524058E-01      0.1265226530E+00
          0                 2           2             2    1     1      -0.1394229270E-03       2    1    1        -0.7445529986E-02      0.1264991273E-01
          0                 3           1             2    1     1       0.9494184980E-05       2    1    1         0.5211872650E-03      0.8852784445E-03

    ------------------------------------------------
       NWT REQUIRED            3 OUTER ITERATIONS 
       AND A TOTAL OF          5 INNER ITERATIONS.
    ------------------------------------------------

 NO OUTPUT CONTROL FOR STRESS PERIOD   15   TIME STEP    2
 
 SOLVING FOR HEAD 
                                                   Max.-Head-Change                         Max.-Flux-Residual
  Residual-Control   Outer-Iter.   Inner-Iter.     Column Row Layer    Maximum-Head-Change  Column Row Layer    Maximum-Flux-Residual          L2-NORM 
          0                 1           2             2    1     1       0.1431137862E-02       2    1    1         0.7432868039E-01      0.1297622014E+00
          0                 2           2             2    1     1      -0.1392107715E-03       2    1    1        -0.7432873547E-02      0.1295565397E-01
          0                 3           1             2    1     1       0.9479738680E-05       2    1    1         0.5203013344E-03      0.9050841114E-03

    ------------------------------------------------
       NWT REQUIRED            3 OUTER ITERATIONS 
       AND A TOTAL OF          5 INNER ITERATIONS.
    ------------------------------------------------

 NO OUTPUT CONTROL FOR STRESS PERIOD   15   TIME STEP    3
 
 SOLVING FOR HEAD 
                                                   Max.-Head-Change                         Max.-Flux-Residual
  Residual-Control   Outer-Iter.   Inner-Iter.     Column Row Layer    Maximum-Head-Change  Column Row Layer    Maximum-Flux-Residual          L2-NORM 
          0                 1           2             2    1     1       0.1428969133E-02       2    1    1         0.7421560305E-01      0.1284184762E+00
          0                 2           2             2    1     1      -0.1389998124E-03       2    1    1        -0.7421565761E-02      0.1282474728E-01
          0                 3           1             2    1     1       0.9465373086E-05       2    1    1         0.5195097851E-03      0.8961532262E-03

    ------------------------------------------------
       NWT REQUIRED            3 OUTER ITERATIONS 
       AND A TOTAL OF          5 INNER ITERATIONS.
    ------------------------------------------------

 NO OUTPUT CONTROL FOR STRESS PERIOD   15   TIME STEP    4
 
 SOLVING FOR HEAD 
                                                   Max.-Head-Change                         Max.-Flux-Residual
  Residual-Control   Outer-Iter.   Inner-Iter.     Column Row Layer    Maximum-Head-Change  Column Row Layer    Maximum-Flux-Residual          L2-NORM 
          0                 1           2             2    1     1       0.1426791196E-02       2    1    1         0.7410205212E-01      0.1272330206E+00
          0                 2           2             2    1     1      -0.1387879578E-03       2    1    1        -0.7410210628E-02      0.1270932927E-01
          0                 3           1             2    1     1       0.9450945956E-05       2    1    1         0.5187149226E-03      0.8879445447E-03

    ------------------------------------------------
       NWT REQUIRED            3 OUTER ITERATIONS 
       AND A TOTAL OF          5 INNER ITERATIONS.
    ------------------------------------------------

 NO OUTPUT CONTROL FOR STRESS PERIOD   15   TIME STEP    5
 
 SOLVING FOR HEAD 
                                                   Max.-Head-Change                         Max.-Flux-Residual
  Residual-Control   Outer-Iter.   Inner-Iter.     Column Row Layer    Maximum-Head-Change  Column Row Layer    Maximum-Flux-Residual          L2-NORM 
          0                 1           2             2    1     1       0.1424646386E-02       2    1    1         0.7399023291E-01      0.1261832822E+00
          0                 2           2             2    1     1      -0.1385793263E-03       2    1    1        -0.7399028697E-02      0.1260663034E-01
          0                 3           1             2    1     1       0.9436739407E-05       2    1    1         0.5179321941E-03      0.8814152373E-03

    ------------------------------------------------
       NWT REQUIRED            3 OUTER ITERATIONS 
       AND A TOTAL OF          5 INNER ITERATIONS.
    ------------------------------------------------

 NO OUTPUT CONTROL FOR STRESS PERIOD   15   TIME STEP    6
 
 SOLVING FOR HEAD 
                                                   Max.-Head-Change                         Max.-Flux-Residual
  Residual-Control   Outer-Iter.   Inner-Iter.     Column Row Layer    Maximum-Head-Change  Column Row Layer    Maximum-Flux-Residual          L2-NORM 
          0                 1           2             2    1     1       0.1422513375E-02       2    1    1         0.7387902672E-01      0.1252521272E+00
          0                 2           2             2    1     1      -0.1383718415E-03       2    1    1        -0.7387908035E-02      0.1251589838E-01
          0                 3           1             2    1     1       0.9422610249E-05       2    1    1         0.5171537257E-03      0.8750228498E-03

    ------------------------------------------------
       NWT REQUIRED            3 OUTER ITERATIONS 
       AND A TOTAL OF          5 INNER ITERATIONS.
    ------------------------------------------------

 NO OUTPUT CONTROL FOR STRESS PERIOD   15   TIME STEP    7
 
 SOLVING FOR HEAD 
                                                   Max.-Head-Change                         Max.-Flux-Residual
  Residual-Control   Outer-Iter.   Inner-Iter.     Column Row Layer    Maximum-Head-Change  Column Row Layer    Maximum-Flux-Residual          L2-NORM 
          0                 1           2             2    1     1       0.1420370789E-02       2    1    1         0.7376732760E-01      0.1244165620E+00
          0                 2           2             2    1     1      -0.1381634262E-03       2    1    1        -0.7376738098E-02      0.1243396416E-01
          0                 3           1             2    1     1       0.9408418373E-05       2    1    1         0.5163718513E-03      0.8697473235E-03

    ------------------------------------------------
       NWT REQUIRED            3 OUTER ITERATIONS 
       AND A TOTAL OF          5 INNER ITERATIONS.
    ------------------------------------------------

 NO OUTPUT CONTROL FOR STRESS PERIOD   15   TIME STEP    8
 
 SOLVING FOR HEAD 
                                                   Max.-Head-Change                         Max.-Flux-Residual
  Residual-Control   Outer-Iter.   Inner-Iter.     Column Row Layer    Maximum-Head-Change  Column Row Layer    Maximum-Flux-Residual          L2-NORM 
          0                 1           2             2    1     1       0.1418261095E-02       2    1    1         0.7365734138E-01      0.1236644069E+00
          0                 2           2             2    1     1      -0.1379582100E-03       2    1    1        -0.7365739453E-02      0.1236029459E-01
          0                 3           1             2    1     1       0.9394443526E-05       2    1    1         0.5156019275E-03      0.8647239648E-03

    ------------------------------------------------
       NWT REQUIRED            3 OUTER ITERATIONS 
       AND A TOTAL OF          5 INNER ITERATIONS.
    ------------------------------------------------

 NO OUTPUT CONTROL FOR STRESS PERIOD   15   TIME STEP    9
 
 SOLVING FOR HEAD 
                                                   Max.-Head-Change                         Max.-Flux-Residual
  Residual-Control   Outer-Iter.   Inner-Iter.     Column Row Layer    Maximum-Head-Change  Column Row Layer    Maximum-Flux-Residual          L2-NORM 
          0                 1           2             2    1     1       0.1416141587E-02       2    1    1         0.7354685113E-01      0.1229908131E+00
          0                 2           2             2    1     1      -0.1377520392E-03       2    1    1        -0.7354690390E-02      0.1229413217E-01
          0                 3           1             2    1     1       0.9380404304E-05       2    1    1         0.5148284970E-03      0.8602144347E-03

    ------------------------------------------------
       NWT REQUIRED            3 OUTER ITERATIONS 
       AND A TOTAL OF          5 INNER ITERATIONS.
    ------------------------------------------------

 NO OUTPUT CONTROL FOR STRESS PERIOD   15   TIME STEP   10
 
 SOLVING FOR HEAD 
                                                   Max.-Head-Change                         Max.-Flux-Residual
  Residual-Control   Outer-Iter.   Inner-Iter.     Column Row Layer    Maximum-Head-Change  Column Row Layer    Maximum-Flux-Residual          L2-NORM 
          0                 1           2             2    1     1       0.1414054714E-02       2    1    1         0.7343806162E-01      0.1223748784E+00
          0                 2           2             2    1     1      -0.1375490428E-03       2    1    1        -0.7343811402E-02      0.1223353391E-01
          0                 3           1             2    1     1       0.9366580692E-05       2    1    1         0.5140669778E-03      0.8559894202E-03

    ------------------------------------------------
       NWT REQUIRED            3 OUTER ITERATIONS 
       AND A TOTAL OF          5 INNER ITERATIONS.
    ------------------------------------------------

 NO OUTPUT CONTROL FOR STRESS PERIOD   15   TIME STEP   11
 
 SOLVING FOR HEAD 
                                                   Max.-Head-Change                         Max.-Flux-Residual
  Residual-Control   Outer-Iter.   Inner-Iter.     Column Row Layer    Maximum-Head-Change  Column Row Layer    Maximum-Flux-Residual          L2-NORM 
          0                 1           2             2    1     1       0.1411957795E-02       2    1    1         0.7332875450E-01      0.1218067863E+00
          0                 2           2             2    1     1      -0.1373450688E-03       2    1    1        -0.7332880647E-02      0.1217712369E-01
          0                 3           1             2    1     1       0.9352690811E-05       2    1    1         0.5133018114E-03      0.8520494176E-03

    ------------------------------------------------
       NWT REQUIRED            3 OUTER ITERATIONS 
       AND A TOTAL OF          5 INNER ITERATIONS.
    ------------------------------------------------

 NO OUTPUT CONTROL FOR STRESS PERIOD   15   TIME STEP   12
 
 SOLVING FOR HEAD 
                                                   Max.-Head-Change                         Max.-Flux-Residual
  Residual-Control   Outer-Iter.   Inner-Iter.     Column Row Layer    Maximum-Head-Change  Column Row Layer    Maximum-Flux-Residual          L2-NORM 
          0                 1           2             2    1     1       0.1409893383E-02       2    1    1         0.7322113631E-01      0.1212889995E+00
          0                 2           2             2    1     1      -0.1371442579E-03       2    1    1        -0.7322118824E-02      0.1212635124E-01
          0                 3           1             2    1     1       0.9339016303E-05       2    1    1         0.5125484841E-03      0.8486615520E-03

    ------------------------------------------------
       NWT REQUIRED            3 OUTER ITERATIONS 
       AND A TOTAL OF          5 INNER ITERATIONS.
    ------------------------------------------------

 NO OUTPUT CONTROL FOR STRESS PERIOD   15   TIME STEP   13
 
 SOLVING FOR HEAD 
                                                   Max.-Head-Change                         Max.-Flux-Residual
  Residual-Control   Outer-Iter.   Inner-Iter.     Column Row Layer    Maximum-Head-Change  Column Row Layer    Maximum-Flux-Residual          L2-NORM 
          0                 1           2             2    1     1       0.1407818699E-02       2    1    1         0.7311299369E-01      0.1208042685E+00
          0                 2           2             2    1     1      -0.1369424475E-03       2    1    1        -0.7311304527E-02      0.1207861731E-01
          0                 3           1             2    1     1       0.9325274106E-05       2    1    1         0.5117914963E-03      0.8453492788E-03

    ------------------------------------------------
       NWT REQUIRED            3 OUTER ITERATIONS 
       AND A TOTAL OF          5 INNER ITERATIONS.
    ------------------------------------------------

 NO OUTPUT CONTROL FOR STRESS PERIOD   15   TIME STEP   14
 
 SOLVING FOR HEAD 
                                                   Max.-Head-Change                         Max.-Flux-Residual
  Residual-Control   Outer-Iter.   Inner-Iter.     Column Row Layer    Maximum-Head-Change  Column Row Layer    Maximum-Flux-Residual          L2-NORM 
          0                 1           2             2    1     1       0.1405776204E-02       2    1    1         0.7300652843E-01      0.1203531527E+00
          0                 2           2             2    1     1      -0.1367437675E-03       2    1    1        -0.7300657957E-02      0.1203374306E-01
          0                 3           1             2    1     1       0.9311744678E-05       2    1    1         0.5110462345E-03      0.8422678961E-03

    ------------------------------------------------
       NWT REQUIRED            3 OUTER ITERATIONS 
       AND A TOTAL OF          5 INNER ITERATIONS.
    ------------------------------------------------

 NO OUTPUT CONTROL FOR STRESS PERIOD   15   TIME STEP   15
 
 SOLVING FOR HEAD 
                                                   Max.-Head-Change                         Max.-Flux-Residual
  Residual-Control   Outer-Iter.   Inner-Iter.     Column Row Layer    Maximum-Head-Change  Column Row Layer    Maximum-Flux-Residual          L2-NORM 
          0                 1           2             2    1     1       0.1403723218E-02       2    1    1         0.7289952212E-01      0.1199361793E+00
          0                 2           2             2    1     1      -0.1365440677E-03       2    1    1        -0.7289957305E-02      0.1199249793E-01
          0                 3           1             2    1     1       0.9298145432E-05       2    1    1         0.5102971795E-03      0.8393662036E-03

    ------------------------------------------------
       NWT REQUIRED            3 OUTER ITERATIONS 
       AND A TOTAL OF          5 INNER ITERATIONS.
    ------------------------------------------------

 NO OUTPUT CONTROL FOR STRESS PERIOD   15   TIME STEP   16
 
 SOLVING FOR HEAD 
                                                   Max.-Head-Change                         Max.-Flux-Residual
  Residual-Control   Outer-Iter.   Inner-Iter.     Column Row Layer    Maximum-Head-Change  Column Row Layer    Maximum-Flux-Residual          L2-NORM 
          0                 1           2             2    1     1       0.1401702208E-02       2    1    1         0.7279418196E-01      0.1195377650E+00
          0                 2           2             2    1     1      -0.1363474780E-03       2    1    1        -0.7279423258E-02      0.1195281426E-01
          0                 3           1             2    1     1       0.9284758718E-05       2    1    1         0.5095598001E-03      0.8365921467E-03

    ------------------------------------------------
       NWT REQUIRED            3 OUTER ITERATIONS 
       AND A TOTAL OF          5 INNER ITERATIONS.
    ------------------------------------------------

 NO OUTPUT CONTROL FOR STRESS PERIOD   15   TIME STEP   17
 
 SOLVING FOR HEAD 
                                                   Max.-Head-Change                         Max.-Flux-Residual
  Residual-Control   Outer-Iter.   Inner-Iter.     Column Row Layer    Maximum-Head-Change  Column Row Layer    Maximum-Flux-Residual          L2-NORM 
          0                 1           2             2    1     1       0.1399670590E-02       2    1    1         0.7268828954E-01      0.1191647836E+00
          0                 2           2             2    1     1      -0.1361498564E-03       2    1    1        -0.7268833985E-02      0.1191578393E-01
          0                 3           1             2    1     1       0.9271301239E-05       2    1    1         0.5088185462E-03      0.8339317689E-03

    ------------------------------------------------
       NWT REQUIRED            3 OUTER ITERATIONS 
       AND A TOTAL OF          5 INNER ITERATIONS.
    ------------------------------------------------

 NO OUTPUT CONTROL FOR STRESS PERIOD   15   TIME STEP   18
 
 SOLVING FOR HEAD 
                                                   Max.-Head-Change                         Max.-Flux-Residual
  Residual-Control   Outer-Iter.   Inner-Iter.     Column Row Layer    Maximum-Head-Change  Column Row Layer    Maximum-Flux-Residual          L2-NORM 
          0                 1           2             2    1     1       0.1397670739E-02       2    1    1         0.7258405740E-01      0.1188068314E+00
          0                 2           2             2    1     1      -0.1359553250E-03       2    1    1        -0.7258410732E-02      0.1188018460E-01
          0                 3           1             2    1     1       0.9258054636E-05       2    1    1         0.5080889292E-03      0.8346467504E-03

    ------------------------------------------------
       NWT REQUIRED            3 OUTER ITERATIONS 
       AND A TOTAL OF          5 INNER ITERATIONS.
    ------------------------------------------------

 NO OUTPUT CONTROL FOR STRESS PERIOD   15   TIME STEP   19
 
 SOLVING FOR HEAD 
                                                   Max.-Head-Change                         Max.-Flux-Residual
  Residual-Control   Outer-Iter.   Inner-Iter.     Column Row Layer    Maximum-Head-Change  Column Row Layer    Maximum-Flux-Residual          L2-NORM 
          0                 1           2             2    1     1       0.1395659974E-02       2    1    1         0.7247926196E-01      0.1184700170E+00
          0                 2           2             2    1     1      -0.1357597324E-03       2    1    1        -0.7247931184E-02      0.1184660531E-01
          0                 3           1             2    1     1       0.9244735375E-05       2    1    1         0.5073553536E-03      0.8292265830E-03

    ------------------------------------------------
       NWT REQUIRED            3 OUTER ITERATIONS 
       AND A TOTAL OF          5 INNER ITERATIONS.
    ------------------------------------------------

 NO OUTPUT CONTROL FOR STRESS PERIOD   15   TIME STEP   20
 
 SOLVING FOR HEAD 
                                                   Max.-Head-Change                         Max.-Flux-Residual
  Residual-Control   Outer-Iter.   Inner-Iter.     Column Row Layer    Maximum-Head-Change  Column Row Layer    Maximum-Flux-Residual          L2-NORM 
          0                 1           2             2    1     1       0.1393659606E-02       2    1    1         0.7237500582E-01      0.1181484595E+00
          0                 2           2             2    1     1      -0.1355651506E-03       2    1    1        -0.7237505539E-02      0.1181459140E-01
          0                 3           1             2    1     1       0.9231485222E-05       2    1    1         0.5066255650E-03      0.8270833982E-03

    ------------------------------------------------
       NWT REQUIRED            3 OUTER ITERATIONS 
       AND A TOTAL OF          5 INNER ITERATIONS.
    ------------------------------------------------

 NO OUTPUT CONTROL FOR STRESS PERIOD   15   TIME STEP   21
 
 SOLVING FOR HEAD 
                                                   Max.-Head-Change                         Max.-Flux-Residual
  Residual-Control   Outer-Iter.   Inner-Iter.     Column Row Layer    Maximum-Head-Change  Column Row Layer    Maximum-Flux-Residual          L2-NORM 
          0                 1           2             2    1     1       0.1391690731E-02       2    1    1         0.7227239409E-01      0.1178387489E+00
          0                 2           2             2    1     1      -0.1353736321E-03       2    1    1        -0.7227244334E-02      0.1178366388E-01
          0                 3           1             2    1     1       0.9218442868E-05       2    1    1         0.5059072600E-03      0.8247692052E-03

    ------------------------------------------------
       NWT REQUIRED            3 OUTER ITERATIONS 
       AND A TOTAL OF          5 INNER ITERATIONS.
    ------------------------------------------------

 NO OUTPUT CONTROL FOR STRESS PERIOD   15   TIME STEP   22
 
 SOLVING FOR HEAD 
                                                   Max.-Head-Change                         Max.-Flux-Residual
  Residual-Control   Outer-Iter.   Inner-Iter.     Column Row Layer    Maximum-Head-Change  Column Row Layer    Maximum-Flux-Residual          L2-NORM 
          0                 1           2             2    1     1       0.1389710737E-02       2    1    1         0.7216920461E-01      0.1175365626E+00
          0                 2           2             2    1     1      -0.1351810327E-03       2    1    1        -0.7216925367E-02      0.1175354720E-01
          0                 3           1             2    1     1       0.9205328092E-05       2    1    1         0.5051849557E-03      0.8227757907E-03

    ------------------------------------------------
       NWT REQUIRED            3 OUTER ITERATIONS 
       AND A TOTAL OF          5 INNER ITERATIONS.
    ------------------------------------------------

 NO OUTPUT CONTROL FOR STRESS PERIOD   15   TIME STEP   23
 
 SOLVING FOR HEAD 
                                                   Max.-Head-Change                         Max.-Flux-Residual
  Residual-Control   Outer-Iter.   Inner-Iter.     Column Row Layer    Maximum-Head-Change  Column Row Layer    Maximum-Flux-Residual          L2-NORM 
          0                 1           2             2    1     1       0.1387762012E-02       2    1    1         0.7206764930E-01      0.1172505355E+00
          0                 2           2             2    1     1      -0.1349914744E-03       2    1    1        -0.7206769802E-02      0.1172495879E-01
          0                 3           1             2    1     1       0.9192419931E-05       2    1    1         0.5044740662E-03      0.8207883171E-03

    ------------------------------------------------
       NWT REQUIRED            3 OUTER ITERATIONS 
       AND A TOTAL OF          5 INNER ITERATIONS.
    ------------------------------------------------

 NO OUTPUT CONTROL FOR STRESS PERIOD   15   TIME STEP   24
 
 SOLVING FOR HEAD 
                                                   Max.-Head-Change                         Max.-Flux-Residual
  Residual-Control   Outer-Iter.   Inner-Iter.     Column Row Layer    Maximum-Head-Change  Column Row Layer    Maximum-Flux-Residual          L2-NORM 
          0                 1           2             2    1     1       0.1385801972E-02       2    1    1         0.7196550451E-01      0.1169699831E+00
          0                 2           2             2    1     1      -0.1348008157E-03       2    1    1        -0.7196555300E-02      0.1169693707E-01
          0                 3           1             2    1     1       0.9179436982E-05       2    1    1         0.5037590538E-03      0.8187498900E-03

    ------------------------------------------------
       NWT REQUIRED            3 OUTER ITERATIONS 
       AND A TOTAL OF          5 INNER ITERATIONS.
    ------------------------------------------------

 NO OUTPUT CONTROL FOR STRESS PERIOD   15   TIME STEP   25
 
 SOLVING FOR HEAD 
                                                   Max.-Head-Change                         Max.-Flux-Residual
  Residual-Control   Outer-Iter.   Inner-Iter.     Column Row Layer    Maximum-Head-Change  Column Row Layer    Maximum-Flux-Residual          L2-NORM 
          0                 1           2             2    1     1       0.1383851744E-02       2    1    1         0.7186387842E-01      0.1166997928E+00
          0                 2           2             2    1     1      -0.1346111111E-03       2    1    1        -0.7186392667E-02      0.1166986198E-01
          0                 3           1             2    1     1       0.9166518645E-05       2    1    1         0.5030476688E-03      0.8168946679E-03

    ------------------------------------------------
       NWT REQUIRED            3 OUTER ITERATIONS 
       AND A TOTAL OF          5 INNER ITERATIONS.
    ------------------------------------------------

 NO OUTPUT CONTROL FOR STRESS PERIOD   15   TIME STEP   26
 
 SOLVING FOR HEAD 
                                                   Max.-Head-Change                         Max.-Flux-Residual
  Residual-Control   Outer-Iter.   Inner-Iter.     Column Row Layer    Maximum-Head-Change  Column Row Layer    Maximum-Flux-Residual          L2-NORM 
          0                 1           2             2    1     1       0.1381932600E-02       2    1    1         0.7176386658E-01      0.1164341673E+00
          0                 2           2             2    1     1      -0.1344244300E-03       2    1    1        -0.7176391438E-02      0.1164337846E-01
          0                 3           1             2    1     1       0.9153805977E-05       2    1    1         0.5023475692E-03      0.8150530009E-03

    ------------------------------------------------
       NWT REQUIRED            3 OUTER ITERATIONS 
       AND A TOTAL OF          5 INNER ITERATIONS.
    ------------------------------------------------

 NO OUTPUT CONTROL FOR STRESS PERIOD   15   TIME STEP   27
 
 SOLVING FOR HEAD 
                                                   Max.-Head-Change                         Max.-Flux-Residual
  Residual-Control   Outer-Iter.   Inner-Iter.     Column Row Layer    Maximum-Head-Change  Column Row Layer    Maximum-Flux-Residual          L2-NORM 
          0                 1           2             2    1     1       0.1380001759E-02       2    1    1         0.7166325540E-01      0.1161795230E+00
          0                 2           2             2    1     1      -0.1342366114E-03       2    1    1        -0.7166330307E-02      0.1161786378E-01
          0                 3           1             2    1     1       0.9141016627E-05       2    1    1         0.5016432879E-03      0.8132480478E-03

    ------------------------------------------------
       NWT REQUIRED            3 OUTER ITERATIONS 
       AND A TOTAL OF          5 INNER ITERATIONS.
    ------------------------------------------------

 NO OUTPUT CONTROL FOR STRESS PERIOD   15   TIME STEP   28
 
 SOLVING FOR HEAD 
                                                   Max.-Head-Change                         Max.-Flux-Residual
  Residual-Control   Outer-Iter.   Inner-Iter.     Column Row Layer    Maximum-Head-Change  Column Row Layer    Maximum-Flux-Residual          L2-NORM 
          0                 1           2             4   13     1       0.4526703388E-02       4   13    1         0.2599220620E+00      0.5179217064E+00
          0                 2           2             7   13     1      -0.8364670514E-03       7   13    1        -0.4638159610E-01      0.6728678815E-01
          0                 3           1             7   13     1       0.5694487029E-04       7   13    1         0.3245853836E-02      0.4623891512E-02

    ------------------------------------------------
       NWT REQUIRED            3 OUTER ITERATIONS 
       AND A TOTAL OF          5 INNER ITERATIONS.
    ------------------------------------------------

 NO OUTPUT CONTROL FOR STRESS PERIOD   15   TIME STEP   29
 
 SOLVING FOR HEAD 
                                                   Max.-Head-Change                         Max.-Flux-Residual
  Residual-Control   Outer-Iter.   Inner-Iter.     Column Row Layer    Maximum-Head-Change  Column Row Layer    Maximum-Flux-Residual          L2-NORM 
          0                 1           2             4   13     1       0.2178165106E-01       4   13    1         0.1257105510E+01      0.2300079746E+01
          0                 2           2             4   13     1      -0.2095700669E-02       4   13    1        -0.1243628321E+00      0.2232824784E+00
          0                 3           2             4   13     1       0.1405532917E-03       4   13    1         0.8575747722E-02      0.1500159418E-01
          0                 4           1             4   13     1      -0.5456205754E-05       4   13    1        -0.3423160078E-03      0.5738259326E-03

    ------------------------------------------------
       NWT REQUIRED            4 OUTER ITERATIONS 
       AND A TOTAL OF          7 INNER ITERATIONS.
    ------------------------------------------------

 NO OUTPUT CONTROL FOR STRESS PERIOD   15   TIME STEP   30



 STREAM LISTING     PERIOD     15   STEP       30

 LAYER ROW COL. STREAM  RCH.  FLOW INTO     FLOW TO   FLOW OUT OF   OVRLND.     DIRECT     STREAM       STREAM     STREAM     STREAM   STREAMBED  STREAMBED
                SEG.NO.  NO.  STRM. RCH.    AQUIFER    STRM. RCH.    RUNOFF     PRECIP       ET          HEAD       DEPTH      WIDTH   CONDCTNC.   GRADIENT

   1    1    1     1     1    7.3501E+01  4.1745E-01   7.3084E+01  0.000E+00  0.000E+00  0.000E+00  1.09473E+03  1.681E+00  1.982E+01  8.917E-02  1.560E+00
   1    2    2     1     2    7.3084E+01  6.4666E-01   7.2437E+01  0.000E+00  0.000E+00  0.000E+00  1.08973E+03  1.675E+00  1.976E+01  1.383E-01  1.558E+00
   1    3    3     1     3    7.2437E+01  5.5167E-01   7.1885E+01  0.000E+00  0.000E+00  0.000E+00  1.08409E+03  1.669E+00  1.969E+01  1.182E-01  1.556E+00
   1    3    4     1     4    7.1885E+01  5.0815E-01   7.1377E+01  0.000E+00  0.000E+00  0.000E+00  1.07907E+03  1.663E+00  1.963E+01  1.090E-01  1.554E+00
   1    4    5     2     1    6.9377E+01  4.0746E-01   6.8970E+01  0.000E+00  0.000E+00  0.000E+00  1.07416E+03  2.224E+00  1.200E+01  7.800E-02  1.741E+00
   1    5    6     2     2    6.8970E+01  3.1301E-01   6.8657E+01  0.000E+00  0.000E+00  0.000E+00  1.06873E+03  2.217E+00  1.200E+01  6.000E-02  1.739E+00
   1    6    6     2     3    6.8657E+01  3.1265E-01   6.8344E+01  0.000E+00  0.000E+00  0.000E+00  1.06400E+03  2.211E+00  1.200E+01  6.000E-02  1.737E+00
   1    7    6     2     4    6.8344E+01  3.1229E-01   6.8032E+01  0.000E+00  0.000E+00  0.000E+00  1.05928E+03  2.205E+00  1.200E+01  6.000E-02  1.735E+00
   1    8    6     2     5    6.8032E+01  3.1192E-01   6.7720E+01  0.000E+00  0.000E+00  0.000E+00  1.05456E+03  2.199E+00  1.200E+01  6.000E-02  1.733E+00
   1    3    5     3     1    2.0000E+00  2.8252E-01   1.7175E+00  0.000E+00  0.000E+00  0.000E+00  1.07555E+03  1.909E+00  9.636E+00  7.227E-02  1.955E+00
   1    3    6     3     2    1.7175E+00  2.4905E-01   1.4684E+00  0.000E+00  0.000E+00  0.000E+00  1.07264E+03  1.727E+00  8.909E+00  6.682E-02  1.864E+00
   1    3    7     3     3    1.4684E+00  1.9718E-01   1.2712E+00  0.000E+00  0.000E+00  0.000E+00  1.06987E+03  1.555E+00  8.218E+00  5.547E-02  1.777E+00
   1    4    8     3     4    1.2712E+00  2.2567E-01   1.0456E+00  0.000E+00  0.000E+00  0.000E+00  1.06682E+03  1.364E+00  7.455E+00  6.709E-02  1.682E+00
   1    5    8     3     5    1.0456E+00  1.5790E-01   8.8768E-01  0.000E+00  0.000E+00  0.000E+00  1.06362E+03  1.164E+00  6.655E+00  4.991E-02  1.582E+00
   1    6    8     3     6    8.8768E-01  5.5980E-02   8.3170E-01  0.000E+00  0.000E+00  0.000E+00  1.06158E+03  1.036E+00  6.145E+00  1.844E-02  1.518E+00
   1    5   10     4     1    1.0000E+01  9.0919E-02   9.9091E+00  0.000E+00  0.000E+00  0.000E+00  1.07836E+03  6.368E-01  1.000E+01  2.500E-02  1.212E+00
   1    5    9     4     2    9.9091E+00  1.8158E-01   9.7275E+00  0.000E+00  0.000E+00  0.000E+00  1.07154E+03  6.315E-01  1.000E+01  5.000E-02  1.211E+00
   1    6    8     4     3    9.7275E+00  1.2689E-01   9.6006E+00  0.000E+00  0.000E+00  0.000E+00  1.06381E+03  6.256E-01  1.000E+01  3.500E-02  1.209E+00
   1    6    8     5     1    1.0432E+01  2.2686E-01   1.0205E+01  0.000E+00  0.000E+00  0.000E+00  1.05868E+03  6.790E-01  1.542E+01  6.166E-02  1.226E+00
   1    7    7     5     2    1.0205E+01  2.7894E-01   9.9265E+00  0.000E+00  0.000E+00  0.000E+00  1.05417E+03  6.732E-01  1.519E+01  7.594E-02  1.224E+00
   1    8    7     5     3    9.9265E+00  1.9221E-01   9.7343E+00  0.000E+00  0.000E+00  0.000E+00  1.04992E+03  6.676E-01  1.497E+01  5.241E-02  1.223E+00
   1    8    6     5     4    9.7343E+00  1.3577E-01   9.5985E+00  0.000E+00  0.000E+00  0.000E+00  1.04691E+03  6.637E-01  1.482E+01  3.706E-02  1.221E+00
   1    9    6     6     1    7.7318E+01  3.2406E-01   7.6994E+01  0.000E+00  0.000E+00  0.000E+00  1.04513E+03  2.401E+00  1.200E+01  6.000E-02  1.800E+00
   1   10    7     6     2    7.6994E+01  3.2370E-01   7.6671E+01  0.000E+00  0.000E+00  0.000E+00  1.04058E+03  2.395E+00  1.200E+01  6.000E-02  1.798E+00
   1   11    7     6     3    7.6671E+01  3.2333E-01   7.6347E+01  0.000E+00  0.000E+00  0.000E+00  1.03603E+03  2.389E+00  1.200E+01  6.000E-02  1.796E+00
   1   12    7     6     4    7.6347E+01  3.2297E-01   7.6024E+01  0.000E+00  0.000E+00  0.000E+00  1.03147E+03  2.383E+00  1.200E+01  6.000E-02  1.794E+00
   1   13    7     6     5    7.6024E+01  2.7499E-02   7.5997E+01  0.000E+00  0.000E+00  0.000E+00  1.02829E+03  2.380E+00  1.200E+01  2.400E-02  3.819E-01
   1   14    9     7     1    1.5000E+02  1.3339E+00   1.4867E+02  0.000E+00  0.000E+00  0.000E+00  1.03987E+03  2.288E+00  5.529E+01  5.593E-01  7.950E-01
   1   13    8     7     2    1.4867E+02  1.8146E+00   1.4685E+02  0.000E+00  0.000E+00  0.000E+00  1.03478E+03  2.279E+00  5.526E+01  6.148E-01  9.839E-01
   1   13    7     7     3    1.4685E+02  1.4225E+00   1.4543E+02  0.000E+00  0.000E+00  0.000E+00  1.02969E+03  2.271E+00  5.522E+01  5.585E-01  8.491E-01
   1   13    6     8     1    2.2143E+02  1.1006E+00   2.2033E+02  0.000E+00  0.000E+00  0.000E+00  1.02513E+03  3.257E+00  4.722E+01  4.812E-01  7.624E-01
   1   13    5     8     2    2.2033E+02  2.7483E-01   2.2005E+02  0.000E+00  0.000E+00  0.000E+00  1.01888E+03  3.253E+00  4.717E+01  4.807E-01  1.906E-01
   1   13    4     8     3    2.2005E+02 -1.5118E+00   2.2156E+02  0.000E+00  0.000E+00  0.000E+00  1.01263E+03  3.256E+00  4.722E+01  4.812E+00 -1.047E-01
   1   13    3     8     4    2.2156E+02 -2.7212E+00   2.2428E+02  0.000E+00  0.000E+00  0.000E+00  1.00639E+03  3.268E+00  4.739E+01  4.829E+00 -1.878E-01
   1   13    2     8     5    2.2428E+02 -1.4737E+00   2.2576E+02  0.000E+00  0.000E+00  0.000E+00  1.00015E+03  3.280E+00  4.755E+01  4.846E+00 -1.014E-01
   1   13    1     8     6    2.2576E+02 -1.3361E+00   2.2709E+02  0.000E+00  0.000E+00  0.000E+00  9.95162E+02  3.287E+00  4.766E+01  2.914E+00 -1.528E-01
   1    8    6     9     1    0.0000E+00  0.0000E+00   0.0000E+00  0.000E+00  0.000E+00  0.000E+00  1.07875E+03  0.000E+00  4.000E+00  0.000E+00  1.000E+00
   1    8    5     9     2    0.0000E+00  0.0000E+00   0.0000E+00  0.000E+00  0.000E+00  0.000E+00  1.07825E+03  0.000E+00  4.000E+00  0.000E+00  1.000E+00





UNSATURATED ZONE PACKAGE VOLUMETRIC BUDGET FOR  TIME STEP    30 STRESS PERIOD   15
  ------------------------------------------------------------------------------



     CUMULATIVE VOLUMES      L**3       RATES FOR THIS TIME STEP      L**3/T
     ------------------                 ------------------------

           IN:                                      IN:
           ---                                      ---
        INFILTRATION =   162893217.4341          INFILTRATION =           4.4075

          OUT:                                     OUT:
          ----                                     ----
              UZF ET =   103714658.0443                UZF ET =           0.7250
        UZF RECHARGE =       73224.0000          UZF RECHARGE =       0.0000E+00

            IN - OUT =    59105335.3898              IN - OUT =           3.6825

          STORAGE:                                 STORAGE:
          --------                                 --------
      STORAGE CHANGE =    59105334.8790        STORAGE CHANGE =           3.6825

 PERCENT DISCREPANCY IS DIFFERENCE BETWEEN IN-OUT MINUS CHANGE IN STORAGE
 DIVIDED BY THE AVERAGE OF IN AND OUT TIMES 100

 PERCENT DISCREPANCY =           0.00     PERCENT DISCREPANCY =           0.00






1
  VOLUMETRIC BUDGET FOR ENTIRE MODEL AT END OF TIME STEP   30, STRESS PERIOD  15
  ------------------------------------------------------------------------------

     CUMULATIVE VOLUMES      L**3       RATES FOR THIS TIME STEP      L**3/T
     ------------------                 ------------------------

           IN:                                      IN:
           ---                                      ---
               AG WELLS  =           0.0000                 AG WELLS  =           0.0000
        DIVERSION SEGMEN =      535838.9375          DIVERSION SEGMEN =           0.0000
    TS         GW IRRIGA =           0.0000      TS         GW IRRIGA =           0.0000
    TION         SW IRRI =           0.0000      TION         SW IRRI =           0.0000
    GATION      SYSTEM L =           0.0000      GATION      SYSTEM L =           0.0000
    OSSES GW      SYSTEM =           0.0000      OSSES GW      SYSTEM =           0.0000

                TOTAL IN =      535838.9375                  TOTAL IN =           0.0000

          OUT:                                     OUT:
          ----                                     ----
               AG WELLS  =           0.0000                 AG WELLS  =           0.0000
        DIVERSION SEGMEN =           0.0000          DIVERSION SEGMEN =           0.0000
    TS         GW IRRIGA =           0.0000      TS         GW IRRIGA =           0.0000
    TION         SW IRRI =      535849.6250      TION         SW IRRI =           0.0000
    GATION      SYSTEM L =           0.0000      GATION      SYSTEM L =           0.0000
    OSSES GW      SYSTEM =           0.0000      OSSES GW      SYSTEM =           0.0000

               TOTAL OUT =      535849.6250                 TOTAL OUT =           0.0000

                IN - OUT =         -10.6875                  IN - OUT =           0.0000

     PERCENT DISCREPANCY =          -0.00         PERCENT DISCREPANCY =           0.00



1
  VOLUMETRIC BUDGET FOR ENTIRE MODEL AT END OF TIME STEP   30, STRESS PERIOD  15
  ------------------------------------------------------------------------------

     CUMULATIVE VOLUMES      L**3       RATES FOR THIS TIME STEP      L**3/T
     ------------------                 ------------------------

           IN:                                      IN:
           ---                                      ---
             STORAGE     =    22465352.0000               STORAGE     =           0.2679
       CONSTANT HEAD     =           0.0000         CONSTANT HEAD     =           0.0000
     HEAD DEP BOUNDS     =    10544300.0000       HEAD DEP BOUNDS     =           0.2856
      STREAM LEAKAGE     =   440156128.0000        STREAM LEAKAGE     =          13.4507
        UZF RECHARGE     =       73223.9531          UZF RECHARGE     =           0.0000
               GW ET     =           0.0000                 GW ET     =           0.0000
     SURFACE LEAKAGE     =           0.0000       SURFACE LEAKAGE     =           0.0000
           AG WELLS      =           0.0000             AG WELLS      =           0.0000

                TOTAL IN =   473239008.0000                  TOTAL IN =          14.0043

          OUT:                                     OUT:
          ----                                     ----
             STORAGE     =    61335384.0000               STORAGE     =           6.6719
       CONSTANT HEAD     =           0.0000         CONSTANT HEAD     =           0.0000
     HEAD DEP BOUNDS     =    10781706.0000       HEAD DEP BOUNDS     =           0.2896
      STREAM LEAKAGE     =   394439936.0000        STREAM LEAKAGE     =           7.0428
        UZF RECHARGE     =           0.0000          UZF RECHARGE     =           0.0000
               GW ET     =     6692063.5000                 GW ET     =           0.0000
     SURFACE LEAKAGE     =           0.0000       SURFACE LEAKAGE     =           0.0000
           AG WELLS      =           0.0000             AG WELLS      =           0.0000

               TOTAL OUT =   473249088.0000                 TOTAL OUT =          14.0042

                IN - OUT =      -10080.0000                  IN - OUT =       2.6703E-05

     PERCENT DISCREPANCY =          -0.00         PERCENT DISCREPANCY =           0.00






         TIME SUMMARY AT END OF TIME STEP   30 IN STRESS PERIOD   15
                    SECONDS     MINUTES      HOURS       DAYS        YEARS
                    -----------------------------------------------------------
   TIME STEP LENGTH  87667.      1461.1      24.352      1.0147     2.77799E-03
 STRESS PERIOD TIME 2.63000E+06  43833.      730.56      30.440     8.33397E-02
         TOTAL TIME 3.69063E+07 6.15106E+05  10252.      427.16      1.1695    
1
1
                            STRESS PERIOD NO.   16, LENGTH =   2630000.    
                            -----------------------------------------------

                              NUMBER OF TIME STEPS =    30

                               MULTIPLIER FOR DELT =     1.000

                            INITIAL TIME STEP SIZE =   87666.66    

 REUSING NON-PARAMETER GHB CELLS FROM LAST STRESS PERIOD

      2 GHB CELLS

 REUSING STREAM SEGMENT DATA FROM LAST STRESS PERIOD



            AREAL INFILTRATION RATE
 READING ON UNIT   19 WITH FORMAT: (10F4.0)            

            1           2           3           4           5           6           7           8           9          10
 ........................................................................................................................
   1   1.2000E-09   0.000       0.000       0.000       0.000       0.000       0.000       0.000       0.000       0.000    
   2   2.1000E-09  2.0000E-09  8.0000E-10  8.5000E-09   0.000       0.000       0.000       0.000       0.000       0.000    
   3   5.0000E-10  1.1000E-09  8.8000E-09  5.5000E-09   0.000       0.000       0.000       0.000       0.000       0.000    
   4   8.5000E-09  1.1000E-09  1.1000E-09  1.1000E-09  2.0000E-09   0.000       0.000       0.000       0.000       0.000    
   5   8.5000E-09  1.1000E-09  1.1000E-09  1.1000E-09  1.1000E-09   0.000       0.000       0.000       0.000       0.000    
   6   8.5000E-09  5.2000E-09  2.1000E-09  1.1000E-09  1.5000E-09   0.000       0.000       0.000       0.000       0.000    
   7   8.5000E-09  5.2000E-09  2.1000E-09  1.2000E-09  2.0000E-09   0.000       0.000       0.000       0.000       0.000    
   8   5.0000E-10  5.2000E-09  2.1000E-09  1.2000E-09  5.0000E-09   0.000       0.000       0.000       0.000       0.000    
   9   5.0000E-10  5.2000E-09  2.1000E-09  1.2000E-09  5.0000E-09   0.000       0.000       0.000       0.000       0.000    
  10   5.0000E-10  5.2000E-09  2.1000E-09  1.2000E-09  5.8000E-09   0.000       0.000       0.000       0.000       0.000    
  11   1.0000E-10  1.1000E-09  1.1000E-09  1.2000E-09  5.0000E-09   0.000       0.000       0.000       0.000       0.000    
  12   1.1000E-09  1.1000E-09  1.1000E-09  1.1000E-09  2.0000E-09   0.000       0.000       0.000       0.000       0.000    
  13   1.1000E-09  2.2000E-09  2.2000E-09  2.1000E-09  1.0000E-09   0.000       0.000       0.000       0.000       0.000    
  14   2.0000E-10  5.5000E-09  5.5000E-09  5.2000E-09  1.0000E-09   0.000       0.000       0.000       0.000       0.000    
  15    0.000      8.8000E-09  8.8000E-09   0.000       0.000       0.000       0.000       0.000       0.000       0.000    

                  ET RATE =  5.000000E-10

 USING ET EXTINCTION DEPTH FROM PREVIOUS STRESS PERIOD. CURRENT PERIOD IS:      16

 USING EXTINCTION WATER CONTENT FROM PREVIOUS STRESS PERIOD. CURRENT PERIOD IS:      16

 USING AIR ENTRY PRESSURE FROM PREVIOUS STRESS PERIOD. CURRENT PERIOD IS:      16

 USING ROOT PRESSURE HEAD FROM PREVIOUS STRESS PERIOD. CURRENT PERIOD IS:      16

 USING ROOT ACTIVITY FROM PREVIOUS STRESS PERIOD. CURRENT PERIOD IS:      16

 PROCESSING AG STRESS PERIOD DATA

 READING AG STRESS PERIOD DATA

 READING IRRIGATION SEGMENT

 READING IRRIGATION WELL

 READING SUPPLEMENTAL WELL

 END PROCESSING AG STRESS PERIOD DATA OPTIONS
 
 SOLVING FOR HEAD 
                                                   Max.-Head-Change                         Max.-Flux-Residual
  Residual-Control   Outer-Iter.   Inner-Iter.     Column Row Layer    Maximum-Head-Change  Column Row Layer    Maximum-Flux-Residual          L2-NORM 
          0                 1           2             2   13     1       0.1970850512E-01       4   13    1         0.1132252584E+01      0.2126172084E+01
          0                 2           2             3   13     1       0.2338678411E-02       3   13    1         0.1375964035E+00      0.2274348062E+00
          0                 3           2             3   13     1       0.2956106487E-03       3   13    1         0.1700247576E-01      0.2115181756E-01
          0                 4           1             3   13     1       0.3799808036E-04       3   13    1         0.2208293690E-02      0.2254950597E-02

    ------------------------------------------------
       NWT REQUIRED            4 OUTER ITERATIONS 
       AND A TOTAL OF          7 INNER ITERATIONS.
    ------------------------------------------------

 NO OUTPUT CONTROL FOR STRESS PERIOD   16   TIME STEP    1
 
 SOLVING FOR HEAD 
                                                   Max.-Head-Change                         Max.-Flux-Residual
  Residual-Control   Outer-Iter.   Inner-Iter.     Column Row Layer    Maximum-Head-Change  Column Row Layer    Maximum-Flux-Residual          L2-NORM 
          0                 1           2             2   13     1       0.1819143659E-01       2   13    1         0.1029838057E+01      0.1978451107E+01
          0                 2           2             3   13     1       0.2170804415E-02       3   13    1         0.1277042135E+00      0.2115587780E+00
          0                 3           2             3   13     1       0.2748927601E-03       3   13    1         0.1581227883E-01      0.1968550130E-01
          0                 4           1             3   13     1       0.3544562626E-04       3   13    1         0.2059796993E-02      0.2103048102E-02

    ------------------------------------------------
       NWT REQUIRED            4 OUTER ITERATIONS 
       AND A TOTAL OF          7 INNER ITERATIONS.
    ------------------------------------------------

 NO OUTPUT CONTROL FOR STRESS PERIOD   16   TIME STEP    2
 
 SOLVING FOR HEAD 
                                                   Max.-Head-Change                         Max.-Flux-Residual
  Residual-Control   Outer-Iter.   Inner-Iter.     Column Row Layer    Maximum-Head-Change  Column Row Layer    Maximum-Flux-Residual          L2-NORM 
          0                 1           2             2   13     1       0.1678800071E-01       2   13    1         0.9505383075E+00      0.1826136373E+01
          0                 2           2             3   13     1       0.1952308945E-02       3   13    1         0.1137898782E+00      0.1725938782E+00
          0                 3           2             3   13     1       0.2514226653E-03       3   13    1         0.1449731648E-01      0.1732624585E-01
          0                 4           1             3   13     1       0.3250658540E-04       3   13    1         0.1883198346E-02      0.1944972348E-02

    ------------------------------------------------
       NWT REQUIRED            4 OUTER ITERATIONS 
       AND A TOTAL OF          7 INNER ITERATIONS.
    ------------------------------------------------

 NO OUTPUT CONTROL FOR STRESS PERIOD   16   TIME STEP    3
 
 SOLVING FOR HEAD 
                                                   Max.-Head-Change                         Max.-Flux-Residual
  Residual-Control   Outer-Iter.   Inner-Iter.     Column Row Layer    Maximum-Head-Change  Column Row Layer    Maximum-Flux-Residual          L2-NORM 
          0                 1           2             2   13     1       0.1549131142E-01       2   13    1         0.8772240156E+00      0.1704753386E+01
          0                 2           2             4   13     1       0.1899847853E-02       4   13    1         0.1100922691E+00      0.1934657386E+00
          0                 3           2             4   13     1       0.2410827338E-03       4   13    1         0.1390554941E-01      0.2122269997E-01
          0                 4           1             3   13     1       0.3101663464E-04       3   13    1         0.1782541191E-02      0.2532853198E-02

    ------------------------------------------------
       NWT REQUIRED            4 OUTER ITERATIONS 
       AND A TOTAL OF          7 INNER ITERATIONS.
    ------------------------------------------------

 NO OUTPUT CONTROL FOR STRESS PERIOD   16   TIME STEP    4
 
 SOLVING FOR HEAD 
                                                   Max.-Head-Change                         Max.-Flux-Residual
  Residual-Control   Outer-Iter.   Inner-Iter.     Column Row Layer    Maximum-Head-Change  Column Row Layer    Maximum-Flux-Residual          L2-NORM 
          0                 1           2             2   13     1       0.1429527625E-01       2   13    1         0.8095685405E+00      0.1572133372E+01
          0                 2           2             4   13     1       0.1672944088E-02       4   13    1         0.9698703119E-01      0.1769808426E+00
          0                 3           2             4   13     1       0.2128081257E-03       4   13    1         0.1226921950E-01      0.1909786743E-01
          0                 4           1             3   13     1       0.2783096403E-04       3   13    1         0.1599822344E-02      0.2257856710E-02

    ------------------------------------------------
       NWT REQUIRED            4 OUTER ITERATIONS 
       AND A TOTAL OF          7 INNER ITERATIONS.
    ------------------------------------------------

 NO OUTPUT CONTROL FOR STRESS PERIOD   16   TIME STEP    5
 
 SOLVING FOR HEAD 
                                                   Max.-Head-Change                         Max.-Flux-Residual
  Residual-Control   Outer-Iter.   Inner-Iter.     Column Row Layer    Maximum-Head-Change  Column Row Layer    Maximum-Flux-Residual          L2-NORM 
          0                 1           2             2   13     1       0.1318748334E-01       2   13    1         0.7468846507E+00      0.1455924605E+01
          0                 2           2             4   13     1       0.1472031353E-02       4   13    1         0.8538028822E-01      0.1625027369E+00
          0                 3           2             4   13     1       0.1879038382E-03       4   13    1         0.1082848741E-01      0.1720904860E-01
          0                 4           1             3   13     1       0.2486036741E-04       3   13    1         0.1429281298E-02      0.2012400475E-02

    ------------------------------------------------
       NWT REQUIRED            4 OUTER ITERATIONS 
       AND A TOTAL OF          7 INNER ITERATIONS.
    ------------------------------------------------

 NO OUTPUT CONTROL FOR STRESS PERIOD   16   TIME STEP    6
 
 SOLVING FOR HEAD 
                                                   Max.-Head-Change                         Max.-Flux-Residual
  Residual-Control   Outer-Iter.   Inner-Iter.     Column Row Layer    Maximum-Head-Change  Column Row Layer    Maximum-Flux-Residual          L2-NORM 
          0                 1           2             2   13     1       0.1216227458E-01       2   13    1         0.6888570263E+00      0.1354032207E+01
          0                 2           2             4   13     1       0.1296702000E-02       4   13    1         0.7525237656E-01      0.1497808736E+00
          0                 3           2             3   13     1       0.1675330909E-03       3   13    1         0.9575617536E-02      0.1553968293E-01
          0                 4           1             3   13     1       0.2231874874E-04       3   13    1         0.1283492770E-02      0.1793478440E-02

    ------------------------------------------------
       NWT REQUIRED            4 OUTER ITERATIONS 
       AND A TOTAL OF          7 INNER ITERATIONS.
    ------------------------------------------------

 NO OUTPUT CONTROL FOR STRESS PERIOD   16   TIME STEP    7
 
 SOLVING FOR HEAD 
                                                   Max.-Head-Change                         Max.-Flux-Residual
  Residual-Control   Outer-Iter.   Inner-Iter.     Column Row Layer    Maximum-Head-Change  Column Row Layer    Maximum-Flux-Residual          L2-NORM 
          0                 1           2             2   13     1       0.1121404733E-01       2   13    1         0.6351724865E+00      0.1264660770E+01
          0                 2           2             4   13     1       0.1143481308E-02       4   13    1         0.6640015936E-01      0.1386975708E+00
          0                 3           2             3   13     1       0.1498217879E-03       3   13    1         0.8562340522E-02      0.1408307860E-01
          0                 4           1             3   13     1       0.1993789032E-04       3   13    1         0.1146734649E-02      0.1601149657E-02

    ------------------------------------------------
       NWT REQUIRED            4 OUTER ITERATIONS 
       AND A TOTAL OF          7 INNER ITERATIONS.
    ------------------------------------------------

 NO OUTPUT CONTROL FOR STRESS PERIOD   16   TIME STEP    8
 
 SOLVING FOR HEAD 
                                                   Max.-Head-Change                         Max.-Flux-Residual
  Residual-Control   Outer-Iter.   Inner-Iter.     Column Row Layer    Maximum-Head-Change  Column Row Layer    Maximum-Flux-Residual          L2-NORM 
          0                 1           2             2   13     1       0.1033761569E-01       2   13    1         0.5855408561E+00      0.1186234900E+01
          0                 2           2             4   13     1       0.1009015828E-02       4   13    1         0.5863213755E-01      0.1289268348E+00
          0                 3           2             3   13     1       0.1336866556E-03       3   13    1         0.7639144533E-02      0.1277936862E-01
          0                 4           1             3   13     1       0.1779999965E-04       3   13    1         0.1023986973E-02      0.1425239774E-02

    ------------------------------------------------
       NWT REQUIRED            4 OUTER ITERATIONS 
       AND A TOTAL OF          7 INNER ITERATIONS.
    ------------------------------------------------

 NO OUTPUT CONTROL FOR STRESS PERIOD   16   TIME STEP    9
 
 SOLVING FOR HEAD 
                                                   Max.-Head-Change                         Max.-Flux-Residual
  Residual-Control   Outer-Iter.   Inner-Iter.     Column Row Layer    Maximum-Head-Change  Column Row Layer    Maximum-Flux-Residual          L2-NORM 
          0                 1           2             2   13     1       0.9527976597E-02       2   13    1         0.5396816905E+00      0.1117362952E+01
          0                 2           2             3   13     1       0.9004066239E-03       3   13    1         0.5221223729E-01      0.1203901277E+00
          0                 3           2             3   13     1       0.1198971526E-03       3   13    1         0.6850668447E-02      0.1165270209E-01
          0                 4           1             3   13     1       0.1597810002E-04       3   13    1         0.9193973710E-03      0.1273127700E-02

    ------------------------------------------------
       NWT REQUIRED            4 OUTER ITERATIONS 
       AND A TOTAL OF          7 INNER ITERATIONS.
    ------------------------------------------------

 NO OUTPUT CONTROL FOR STRESS PERIOD   16   TIME STEP   10
 
 SOLVING FOR HEAD 
                                                   Max.-Head-Change                         Max.-Flux-Residual
  Residual-Control   Outer-Iter.   Inner-Iter.     Column Row Layer    Maximum-Head-Change  Column Row Layer    Maximum-Flux-Residual          L2-NORM 
          0                 1           2             2   13     1       0.8780435760E-02       2   13    1         0.4973317716E+00      0.1056827596E+01
          0                 2           2             2   13     1      -0.8105980660E-03       2   13    1        -0.4785727901E-01      0.1129838806E+00
          0                 3           1             3   13     1       0.1072273788E-03       3   13    1         0.6125468356E-02      0.1067706285E-01
          0                 4           1             3   13     1       0.1428842597E-04       3   13    1         0.8222665510E-03      0.1142161433E-02

    ------------------------------------------------
       NWT REQUIRED            4 OUTER ITERATIONS 
       AND A TOTAL OF          6 INNER ITERATIONS.
    ------------------------------------------------

 NO OUTPUT CONTROL FOR STRESS PERIOD   16   TIME STEP   11
 
 SOLVING FOR HEAD 
                                                   Max.-Head-Change                         Max.-Flux-Residual
  Residual-Control   Outer-Iter.   Inner-Iter.     Column Row Layer    Maximum-Head-Change  Column Row Layer    Maximum-Flux-Residual          L2-NORM 
          0                 1           2             2   13     1       0.8090517963E-02       2   13    1         0.4582395201E+00      0.1003568289E+01
          0                 2           2             2   13     1      -0.7478906283E-03       2   13    1        -0.4413525274E-01      0.1064288902E+00
          0                 3           1             3   13     1       0.9581544527E-04       3   13    1         0.5472487101E-02      0.9803139638E-02

    ------------------------------------------------
       NWT REQUIRED            3 OUTER ITERATIONS 
       AND A TOTAL OF          5 INNER ITERATIONS.
    ------------------------------------------------

 NO OUTPUT CONTROL FOR STRESS PERIOD   16   TIME STEP   12
 
 SOLVING FOR HEAD 
                                                   Max.-Head-Change                         Max.-Flux-Residual
  Residual-Control   Outer-Iter.   Inner-Iter.     Column Row Layer    Maximum-Head-Change  Column Row Layer    Maximum-Flux-Residual          L2-NORM 
          0                 1           2             2   13     1       0.7453801443E-02       2   13    1         0.4221553922E+00      0.9566775071E+00
          0                 2           2             2   13     1      -0.6898661428E-03       2   13    1        -0.4069307739E-01      0.1007048993E+00
          0                 3           1             3   13     1       0.8571141807E-04       3   13    1         0.4894365105E-02      0.9044247976E-02

    ------------------------------------------------
       NWT REQUIRED            3 OUTER ITERATIONS 
       AND A TOTAL OF          5 INNER ITERATIONS.
    ------------------------------------------------

 NO OUTPUT CONTROL FOR STRESS PERIOD   16   TIME STEP   13
 
 SOLVING FOR HEAD 
                                                   Max.-Head-Change                         Max.-Flux-Residual
  Residual-Control   Outer-Iter.   Inner-Iter.     Column Row Layer    Maximum-Head-Change  Column Row Layer    Maximum-Flux-Residual          L2-NORM 
          0                 1           2             2   13     1       0.6866768911E-02       2   13    1         0.3888826136E+00      0.9152999045E+00
          0                 2           2             2   13     1      -0.6362494371E-03       2   13    1        -0.3751420676E-01      0.9570812202E-01
          0                 3           1             3   13     1       0.7690161548E-04       3   13    1         0.4390424156E-02      0.8390570367E-02

    ------------------------------------------------
       NWT REQUIRED            3 OUTER ITERATIONS 
       AND A TOTAL OF          5 INNER ITERATIONS.
    ------------------------------------------------

 NO OUTPUT CONTROL FOR STRESS PERIOD   16   TIME STEP   14
 
 SOLVING FOR HEAD 
                                                   Max.-Head-Change                         Max.-Flux-Residual
  Residual-Control   Outer-Iter.   Inner-Iter.     Column Row Layer    Maximum-Head-Change  Column Row Layer    Maximum-Flux-Residual          L2-NORM 
          0                 1           2             1   13     1       0.6332971597E-02       2   13    1         0.3582099162E+00      0.8787234999E+00
          0                 2           2             2    2     1      -0.6105848561E-03       2   13    1        -0.3457758952E-01      0.9136349923E-01
          0                 3           1             3   13     1       0.6901684170E-04       3   13    1         0.3939154404E-02      0.7831186737E-02

    ------------------------------------------------
       NWT REQUIRED            3 OUTER ITERATIONS 
       AND A TOTAL OF          5 INNER ITERATIONS.
    ------------------------------------------------

 NO OUTPUT CONTROL FOR STRESS PERIOD   16   TIME STEP   15
 
 SOLVING FOR HEAD 
                                                   Max.-Head-Change                         Max.-Flux-Residual
  Residual-Control   Outer-Iter.   Inner-Iter.     Column Row Layer    Maximum-Head-Change  Column Row Layer    Maximum-Flux-Residual          L2-NORM 
          0                 1           2             2    2     1       0.6239426155E-02       2   13    1         0.3299476832E+00      0.8463313683E+00
          0                 2           2             2    2     1      -0.6069277176E-03       2    2    1        -0.3256743394E-01      0.8752047953E-01
          0                 3           1             3   13     1       0.6181881057E-04       3   13    1         0.3527209002E-02      0.7333830309E-02

    ------------------------------------------------
       NWT REQUIRED            3 OUTER ITERATIONS 
       AND A TOTAL OF          5 INNER ITERATIONS.
    ------------------------------------------------

 NO OUTPUT CONTROL FOR STRESS PERIOD   16   TIME STEP   16
 
 SOLVING FOR HEAD 
                                                   Max.-Head-Change                         Max.-Flux-Residual
  Residual-Control   Outer-Iter.   Inner-Iter.     Column Row Layer    Maximum-Head-Change  Column Row Layer    Maximum-Flux-Residual          L2-NORM 
          0                 1           2             2    2     1       0.6202279107E-02       2    2    1         0.3237193182E+00      0.8175952513E+00
          0                 2           2             2    2     1      -0.6033142942E-03       2    2    1        -0.3237204211E-01      0.8413838690E-01
          0                 3           1             3   13     1       0.5541134231E-04       3   13    1         0.3160561368E-02      0.6901358380E-02

    ------------------------------------------------
       NWT REQUIRED            3 OUTER ITERATIONS 
       AND A TOTAL OF          5 INNER ITERATIONS.
    ------------------------------------------------

 NO OUTPUT CONTROL FOR STRESS PERIOD   16   TIME STEP   17
 
 SOLVING FOR HEAD 
                                                   Max.-Head-Change                         Max.-Flux-Residual
  Residual-Control   Outer-Iter.   Inner-Iter.     Column Row Layer    Maximum-Head-Change  Column Row Layer    Maximum-Flux-Residual          L2-NORM 
          0                 1           2             2    2     1       0.6165748972E-02       2    2    1         0.3217978574E+00      0.7920435109E+00
          0                 2           2             2    2     1      -0.5997608802E-03       2    2    1        -0.3217989419E-01      0.8116266359E-01
          0                 3           1             3   13     1       0.4972521231E-04       3   13    1         0.2835203552E-02      0.6527584002E-02

    ------------------------------------------------
       NWT REQUIRED            3 OUTER ITERATIONS 
       AND A TOTAL OF          5 INNER ITERATIONS.
    ------------------------------------------------

 NO OUTPUT CONTROL FOR STRESS PERIOD   16   TIME STEP   18
 
 SOLVING FOR HEAD 
                                                   Max.-Head-Change                         Max.-Flux-Residual
  Residual-Control   Outer-Iter.   Inner-Iter.     Column Row Layer    Maximum-Head-Change  Column Row Layer    Maximum-Flux-Residual          L2-NORM 
          0                 1           2             2    2     1       0.6129651213E-02       2    2    1         0.3198992449E+00      0.7692642896E+00
          0                 2           2             2    2     1      -0.5962495251E-03       2    2    1        -0.3199003112E-01      0.7853927534E-01
          0                 3           1             3   13     1       0.4466080958E-04       3   13    1         0.2545443800E-02      0.6204005694E-02

    ------------------------------------------------
       NWT REQUIRED            3 OUTER ITERATIONS 
       AND A TOTAL OF          5 INNER ITERATIONS.
    ------------------------------------------------

 NO OUTPUT CONTROL FOR STRESS PERIOD   16   TIME STEP   19
 
 SOLVING FOR HEAD 
                                                   Max.-Head-Change                         Max.-Flux-Residual
  Residual-Control   Outer-Iter.   Inner-Iter.     Column Row Layer    Maximum-Head-Change  Column Row Layer    Maximum-Flux-Residual          L2-NORM 
          0                 1           2             2    2     1       0.6093978383E-02       2    2    1         0.3180230502E+00      0.7489183214E+00
          0                 2           2             2    2     1      -0.5927795045E-03       2    2    1        -0.3180240988E-01      0.7622099669E-01
          0                 3           1             2    2     1       0.4036607138E-04       3   13    1         0.2288694592E-02      0.5925427883E-02

    ------------------------------------------------
       NWT REQUIRED            3 OUTER ITERATIONS 
       AND A TOTAL OF          5 INNER ITERATIONS.
    ------------------------------------------------

 NO OUTPUT CONTROL FOR STRESS PERIOD   16   TIME STEP   20
 
 SOLVING FOR HEAD 
                                                   Max.-Head-Change                         Max.-Flux-Residual
  Residual-Control   Outer-Iter.   Inner-Iter.     Column Row Layer    Maximum-Head-Change  Column Row Layer    Maximum-Flux-Residual          L2-NORM 
          0                 1           2             2    2     1       0.6058897663E-02       2    2    1         0.3161780263E+00      0.7306918678E+00
          0                 2           2             2    2     1      -0.5893670813E-03       2    2    1        -0.3161790578E-01      0.7416667566E-01
          0                 3           1             2    2     1       0.4013369823E-04       2    2    1         0.2213253392E-02      0.5683902357E-02

    ------------------------------------------------
       NWT REQUIRED            3 OUTER ITERATIONS 
       AND A TOTAL OF          5 INNER ITERATIONS.
    ------------------------------------------------

 NO OUTPUT CONTROL FOR STRESS PERIOD   16   TIME STEP   21
 
 SOLVING FOR HEAD 
                                                   Max.-Head-Change                         Max.-Flux-Residual
  Residual-Control   Outer-Iter.   Inner-Iter.     Column Row Layer    Maximum-Head-Change  Column Row Layer    Maximum-Flux-Residual          L2-NORM 
          0                 1           2             2    2     1       0.6024225689E-02       2    2    1         0.3143545635E+00      0.7143173208E+00
          0                 2           2             2    2     1      -0.5859944178E-03       2    2    1        -0.3143555779E-01      0.7233908769E-01
          0                 3           1             2    2     1       0.3990403238E-04       2    2    1         0.2200489038E-02      0.5474789975E-02

    ------------------------------------------------
       NWT REQUIRED            3 OUTER ITERATIONS 
       AND A TOTAL OF          5 INNER ITERATIONS.
    ------------------------------------------------

 NO OUTPUT CONTROL FOR STRESS PERIOD   16   TIME STEP   22
 
 SOLVING FOR HEAD 
                                                   Max.-Head-Change                         Max.-Flux-Residual
  Residual-Control   Outer-Iter.   Inner-Iter.     Column Row Layer    Maximum-Head-Change  Column Row Layer    Maximum-Flux-Residual          L2-NORM 
          0                 1           2             2    2     1       0.5990042866E-02       2    2    1         0.3125568634E+00      0.6995732933E+00
          0                 2           2             2    2     1      -0.5826693364E-03       2    2    1        -0.3125578612E-01      0.7070929904E-01
          0                 3           1             2    2     1       0.3967760730E-04       2    2    1         0.2187905046E-02      0.5292876671E-02

    ------------------------------------------------
       NWT REQUIRED            3 OUTER ITERATIONS 
       AND A TOTAL OF          5 INNER ITERATIONS.
    ------------------------------------------------

 NO OUTPUT CONTROL FOR STRESS PERIOD   16   TIME STEP   23
 
 SOLVING FOR HEAD 
                                                   Max.-Head-Change                         Max.-Flux-Residual
  Residual-Control   Outer-Iter.   Inner-Iter.     Column Row Layer    Maximum-Head-Change  Column Row Layer    Maximum-Flux-Residual          L2-NORM 
          0                 1           2             2    2     1       0.5956253445E-02       2    2    1         0.3107799551E+00      0.6862472132E+00
          0                 2           2             2    2     1      -0.5793825223E-03       2    2    1        -0.3107809366E-01      0.6925062181E-01
          0                 3           1             2    2     1       0.3945378751E-04       2    2    1         0.2175466573E-02      0.5135037516E-02

    ------------------------------------------------
       NWT REQUIRED            3 OUTER ITERATIONS 
       AND A TOTAL OF          5 INNER ITERATIONS.
    ------------------------------------------------

 NO OUTPUT CONTROL FOR STRESS PERIOD   16   TIME STEP   24
 
 SOLVING FOR HEAD 
                                                   Max.-Head-Change                         Max.-Flux-Residual
  Residual-Control   Outer-Iter.   Inner-Iter.     Column Row Layer    Maximum-Head-Change  Column Row Layer    Maximum-Flux-Residual          L2-NORM 
          0                 1           2             2    2     1       0.5923025532E-02       2    2    1         0.3090325844E+00      0.6741825724E+00
          0                 2           2             2    2     1      -0.5761503287E-03       2    2    1        -0.3090335503E-01      0.6794153000E-01
          0                 3           1             2    2     1       0.3923368705E-04       2    2    1         0.2163234869E-02      0.4998369933E-02

    ------------------------------------------------
       NWT REQUIRED            3 OUTER ITERATIONS 
       AND A TOTAL OF          5 INNER ITERATIONS.
    ------------------------------------------------

 NO OUTPUT CONTROL FOR STRESS PERIOD   16   TIME STEP   25
 
 SOLVING FOR HEAD 
                                                   Max.-Head-Change                         Max.-Flux-Residual
  Residual-Control   Outer-Iter.   Inner-Iter.     Column Row Layer    Maximum-Head-Change  Column Row Layer    Maximum-Flux-Residual          L2-NORM 
          0                 1           2             2    2     1       0.5890176287E-02       2    2    1         0.3073051866E+00      0.6632134373E+00
          0                 2           2             2    2     1      -0.5729549697E-03       2    2    1        -0.3073061370E-01      0.6676360729E-01
          0                 3           1             2    2     1       0.3901609556E-04       2    2    1         0.2151142997E-02      0.4877353805E-02

    ------------------------------------------------
       NWT REQUIRED            3 OUTER ITERATIONS 
       AND A TOTAL OF          5 INNER ITERATIONS.
    ------------------------------------------------

 NO OUTPUT CONTROL FOR STRESS PERIOD   16   TIME STEP   26
 
 SOLVING FOR HEAD 
                                                   Max.-Head-Change                         Max.-Flux-Residual
  Residual-Control   Outer-Iter.   Inner-Iter.     Column Row Layer    Maximum-Head-Change  Column Row Layer    Maximum-Flux-Residual          L2-NORM 
          0                 1           2             2    2     1       0.5857786265E-02       2    2    1         0.3056019927E+00      0.6532191107E+00
          0                 2           2             2    2     1      -0.5698042804E-03       2    2    1        -0.3056029279E-01      0.6569383839E-01
          0                 3           1             2    2     1       0.3880154509E-04       2    2    1         0.2139220527E-02      0.4769558456E-02

    ------------------------------------------------
       NWT REQUIRED            3 OUTER ITERATIONS 
       AND A TOTAL OF          5 INNER ITERATIONS.
    ------------------------------------------------

 NO OUTPUT CONTROL FOR STRESS PERIOD   16   TIME STEP   27
 
 SOLVING FOR HEAD 
                                                   Max.-Head-Change                         Max.-Flux-Residual
  Residual-Control   Outer-Iter.   Inner-Iter.     Column Row Layer    Maximum-Head-Change  Column Row Layer    Maximum-Flux-Residual          L2-NORM 
          0                 1           2             2    2     1       0.5825760970E-02       2    2    1         0.3039180382E+00      0.6440855948E+00
          0                 2           2             2    2     1      -0.5666890700E-03       2    2    1        -0.3039189585E-01      0.6472426424E-01
          0                 3           1             2    2     1       0.3858941128E-04       2    2    1         0.2127432758E-02      0.4676228713E-02

    ------------------------------------------------
       NWT REQUIRED            3 OUTER ITERATIONS 
       AND A TOTAL OF          5 INNER ITERATIONS.
    ------------------------------------------------

 NO OUTPUT CONTROL FOR STRESS PERIOD   16   TIME STEP   28
 
 SOLVING FOR HEAD 
                                                   Max.-Head-Change                         Max.-Flux-Residual
  Residual-Control   Outer-Iter.   Inner-Iter.     Column Row Layer    Maximum-Head-Change  Column Row Layer    Maximum-Flux-Residual          L2-NORM 
          0                 1           2             2    2     1       0.5794268315E-02       2    2    1         0.3022621360E+00      0.6357198793E+00
          0                 2           2             2    2     1      -0.5636256721E-03       2    2    1        -0.3022630421E-01      0.6384227903E-01
          0                 3           1             2    2     1       0.3838080557E-04       2    2    1         0.2115841359E-02      0.4592211514E-02

    ------------------------------------------------
       NWT REQUIRED            3 OUTER ITERATIONS 
       AND A TOTAL OF          5 INNER ITERATIONS.
    ------------------------------------------------

 NO OUTPUT CONTROL FOR STRESS PERIOD   16   TIME STEP   29
 
 SOLVING FOR HEAD 
                                                   Max.-Head-Change                         Max.-Flux-Residual
  Residual-Control   Outer-Iter.   Inner-Iter.     Column Row Layer    Maximum-Head-Change  Column Row Layer    Maximum-Flux-Residual          L2-NORM 
          0                 1           2             2    2     1       0.5058501180E-02       2    2    1         0.2637878298E+00      0.5528375915E+00
          0                 2           2             2    2     1      -0.4920552362E-03       2    2    1        -0.2637884998E-01      0.5627132789E-01
          0                 3           1             2    2     1       0.3350712755E-04       2    2    1         0.1846519665E-02      0.4394251695E-02

    ------------------------------------------------
       NWT REQUIRED            3 OUTER ITERATIONS 
       AND A TOTAL OF          5 INNER ITERATIONS.
    ------------------------------------------------

 NO OUTPUT CONTROL FOR STRESS PERIOD   16   TIME STEP   30



 STREAM LISTING     PERIOD     16   STEP       30

 LAYER ROW COL. STREAM  RCH.  FLOW INTO     FLOW TO   FLOW OUT OF   OVRLND.     DIRECT     STREAM       STREAM     STREAM     STREAM   STREAMBED  STREAMBED
                SEG.NO.  NO.  STRM. RCH.    AQUIFER    STRM. RCH.    RUNOFF     PRECIP       ET          HEAD       DEPTH      WIDTH   CONDCTNC.   GRADIENT

   1    1    1     1     1    6.6341E+01  3.9373E-01   6.5947E+01  0.000E+00  0.000E+00  0.000E+00  1.09465E+03  1.601E+00  1.902E+01  8.558E-02  1.534E+00
   1    2    2     1     2    6.5947E+01  6.0983E-01   6.5338E+01  0.000E+00  0.000E+00  0.000E+00  1.08965E+03  1.595E+00  1.896E+01  1.327E-01  1.532E+00
   1    3    3     1     3    6.5338E+01  5.2015E-01   6.4817E+01  0.000E+00  0.000E+00  0.000E+00  1.08401E+03  1.588E+00  1.889E+01  1.134E-01  1.529E+00
   1    3    4     1     4    6.4817E+01  4.7905E-01   6.4338E+01  0.000E+00  0.000E+00  0.000E+00  1.07899E+03  1.582E+00  1.884E+01  1.045E-01  1.527E+00
   1    4    5     2     1    6.2338E+01  3.9665E-01   6.1942E+01  0.000E+00  0.000E+00  0.000E+00  1.07402E+03  2.085E+00  1.200E+01  7.800E-02  1.695E+00
   1    5    6     2     2    6.1942E+01  3.0469E-01   6.1637E+01  0.000E+00  0.000E+00  0.000E+00  1.06859E+03  2.078E+00  1.200E+01  6.000E-02  1.693E+00
   1    6    6     2     3    6.1637E+01  3.0432E-01   6.1333E+01  0.000E+00  0.000E+00  0.000E+00  1.06386E+03  2.072E+00  1.200E+01  6.000E-02  1.691E+00
   1    7    6     2     4    6.1333E+01  3.0396E-01   6.1029E+01  0.000E+00  0.000E+00  0.000E+00  1.05914E+03  2.066E+00  1.200E+01  6.000E-02  1.689E+00
   1    8    6     2     5    6.1029E+01  3.0359E-01   6.0725E+01  0.000E+00  0.000E+00  0.000E+00  1.05442E+03  2.060E+00  1.200E+01  6.000E-02  1.687E+00
   1    3    5     3     1    2.0000E+00  2.8252E-01   1.7175E+00  0.000E+00  0.000E+00  0.000E+00  1.07555E+03  1.909E+00  9.636E+00  7.227E-02  1.955E+00
   1    3    6     3     2    1.7175E+00  2.4905E-01   1.4684E+00  0.000E+00  0.000E+00  0.000E+00  1.07264E+03  1.727E+00  8.909E+00  6.682E-02  1.864E+00
   1    3    7     3     3    1.4684E+00  1.9718E-01   1.2712E+00  0.000E+00  0.000E+00  0.000E+00  1.06987E+03  1.555E+00  8.218E+00  5.547E-02  1.777E+00
   1    4    8     3     4    1.2712E+00  2.2567E-01   1.0456E+00  0.000E+00  0.000E+00  0.000E+00  1.06682E+03  1.364E+00  7.455E+00  6.709E-02  1.682E+00
   1    5    8     3     5    1.0456E+00  1.5790E-01   8.8768E-01  0.000E+00  0.000E+00  0.000E+00  1.06362E+03  1.164E+00  6.655E+00  4.991E-02  1.582E+00
   1    6    8     3     6    8.8768E-01  5.5980E-02   8.3170E-01  0.000E+00  0.000E+00  0.000E+00  1.06158E+03  1.036E+00  6.145E+00  1.844E-02  1.518E+00
   1    5   10     4     1    1.0000E+01  9.0919E-02   9.9091E+00  0.000E+00  0.000E+00  0.000E+00  1.07836E+03  6.368E-01  1.000E+01  2.500E-02  1.212E+00
   1    5    9     4     2    9.9091E+00  1.8158E-01   9.7275E+00  0.000E+00  0.000E+00  0.000E+00  1.07154E+03  6.315E-01  1.000E+01  5.000E-02  1.211E+00
   1    6    8     4     3    9.7275E+00  1.2689E-01   9.6006E+00  0.000E+00  0.000E+00  0.000E+00  1.06381E+03  6.256E-01  1.000E+01  3.500E-02  1.209E+00
   1    6    8     5     1    1.0432E+01  2.2686E-01   1.0205E+01  0.000E+00  0.000E+00  0.000E+00  1.05868E+03  6.790E-01  1.542E+01  6.166E-02  1.226E+00
   1    7    7     5     2    1.0205E+01  2.7894E-01   9.9265E+00  0.000E+00  0.000E+00  0.000E+00  1.05417E+03  6.732E-01  1.519E+01  7.594E-02  1.224E+00
   1    8    7     5     3    9.9265E+00  1.9221E-01   9.7343E+00  0.000E+00  0.000E+00  0.000E+00  1.04992E+03  6.676E-01  1.497E+01  5.241E-02  1.223E+00
   1    8    6     5     4    9.7343E+00  1.3577E-01   9.5985E+00  0.000E+00  0.000E+00  0.000E+00  1.04691E+03  6.637E-01  1.482E+01  3.706E-02  1.221E+00
   1    9    6     6     1    7.0324E+01  3.1608E-01   7.0008E+01  0.000E+00  0.000E+00  0.000E+00  1.04500E+03  2.268E+00  1.200E+01  6.000E-02  1.756E+00
   1   10    7     6     2    7.0008E+01  3.1571E-01   6.9692E+01  0.000E+00  0.000E+00  0.000E+00  1.04044E+03  2.262E+00  1.200E+01  6.000E-02  1.754E+00
   1   11    7     6     3    6.9692E+01  3.1534E-01   6.9377E+01  0.000E+00  0.000E+00  0.000E+00  1.03589E+03  2.256E+00  1.200E+01  6.000E-02  1.752E+00
   1   12    7     6     4    6.9377E+01  3.1498E-01   6.9062E+01  0.000E+00  0.000E+00  0.000E+00  1.03134E+03  2.250E+00  1.200E+01  6.000E-02  1.750E+00
   1   13    7     6     5    6.9062E+01  2.3582E-02   6.9038E+01  0.000E+00  0.000E+00  0.000E+00  1.02816E+03  2.246E+00  1.200E+01  2.400E-02  3.275E-01
   1   14    9     7     1    1.5000E+02  1.3339E+00   1.4867E+02  0.000E+00  0.000E+00  0.000E+00  1.03987E+03  2.288E+00  5.529E+01  5.593E-01  7.950E-01
   1   13    8     7     2    1.4867E+02  1.8136E+00   1.4685E+02  0.000E+00  0.000E+00  0.000E+00  1.03478E+03  2.279E+00  5.526E+01  6.148E-01  9.833E-01
   1   13    7     7     3    1.4685E+02  1.4058E+00   1.4545E+02  0.000E+00  0.000E+00  0.000E+00  1.02969E+03  2.271E+00  5.522E+01  5.585E-01  8.391E-01
   1   13    6     8     1    2.1448E+02  1.0299E+00   2.1345E+02  0.000E+00  0.000E+00  0.000E+00  1.02509E+03  3.218E+00  4.666E+01  4.755E-01  7.219E-01
   1   13    5     8     2    2.1345E+02  2.1107E-01   2.1324E+02  0.000E+00  0.000E+00  0.000E+00  1.01884E+03  3.215E+00  4.661E+01  4.750E-01  1.481E-01
   1   13    4     8     3    2.1324E+02 -2.5686E+00   2.1581E+02  0.000E+00  0.000E+00  0.000E+00  1.01260E+03  3.221E+00  4.671E+01  4.760E+00 -1.799E-01
   1   13    3     8     4    2.1581E+02 -3.7591E+00   2.1957E+02  0.000E+00  0.000E+00  0.000E+00  1.00636E+03  3.239E+00  4.697E+01  4.786E+00 -2.618E-01
   1   13    2     8     5    2.1957E+02 -2.5781E+00   2.2215E+02  0.000E+00  0.000E+00  0.000E+00  1.00013E+03  3.257E+00  4.722E+01  4.812E+00 -1.786E-01
   1   13    1     8     6    2.2215E+02 -1.9042E+00   2.2405E+02  0.000E+00  0.000E+00  0.000E+00  9.95144E+02  3.269E+00  4.740E+01  2.898E+00 -2.190E-01
   1    8    6     9     1    0.0000E+00  0.0000E+00   0.0000E+00  0.000E+00  0.000E+00  0.000E+00  1.07875E+03  0.000E+00  4.000E+00  0.000E+00  1.000E+00
   1    8    5     9     2    0.0000E+00  0.0000E+00   0.0000E+00  0.000E+00  0.000E+00  0.000E+00  1.07825E+03  0.000E+00  4.000E+00  0.000E+00  1.000E+00





UNSATURATED ZONE PACKAGE VOLUMETRIC BUDGET FOR  TIME STEP    30 STRESS PERIOD   16
  ------------------------------------------------------------------------------



     CUMULATIVE VOLUMES      L**3       RATES FOR THIS TIME STEP      L**3/T
     ------------------                 ------------------------

           IN:                                      IN:
           ---                                      ---
        INFILTRATION =   174484941.9922          INFILTRATION =           4.4075

          OUT:                                     OUT:
          ----                                     ----
              UZF ET =   105621407.9147                UZF ET =           0.7250
        UZF RECHARGE =      674797.3606          UZF RECHARGE =           0.0334

            IN - OUT =    68188736.7169              IN - OUT =           3.6491

          STORAGE:                                 STORAGE:
          --------                                 --------
      STORAGE CHANGE =    68189383.1747        STORAGE CHANGE =           3.6491

 PERCENT DISCREPANCY IS DIFFERENCE BETWEEN IN-OUT MINUS CHANGE IN STORAGE
 DIVIDED BY THE AVERAGE OF IN AND OUT TIMES 100

 PERCENT DISCREPANCY =          -0.00     PERCENT DISCREPANCY =           0.00






1
  VOLUMETRIC BUDGET FOR ENTIRE MODEL AT END OF TIME STEP   30, STRESS PERIOD  16
  ------------------------------------------------------------------------------

     CUMULATIVE VOLUMES      L**3       RATES FOR THIS TIME STEP      L**3/T
     ------------------                 ------------------------

           IN:                                      IN:
           ---                                      ---
               AG WELLS  =           0.0000                 AG WELLS  =           0.0000
        DIVERSION SEGMEN =      535838.9375          DIVERSION SEGMEN =           0.0000
    TS         GW IRRIGA =           0.0000      TS         GW IRRIGA =           0.0000
    TION         SW IRRI =           0.0000      TION         SW IRRI =           0.0000
    GATION      SYSTEM L =           0.0000      GATION      SYSTEM L =           0.0000
    OSSES GW      SYSTEM =           0.0000      OSSES GW      SYSTEM =           0.0000

                TOTAL IN =      535838.9375                  TOTAL IN =           0.0000

          OUT:                                     OUT:
          ----                                     ----
               AG WELLS  =           0.0000                 AG WELLS  =           0.0000
        DIVERSION SEGMEN =           0.0000          DIVERSION SEGMEN =           0.0000
    TS         GW IRRIGA =           0.0000      TS         GW IRRIGA =           0.0000
    TION         SW IRRI =      535849.6250      TION         SW IRRI =           0.0000
    GATION      SYSTEM L =           0.0000      GATION      SYSTEM L =           0.0000
    OSSES GW      SYSTEM =           0.0000      OSSES GW      SYSTEM =           0.0000

               TOTAL OUT =      535849.6250                 TOTAL OUT =           0.0000

                IN - OUT =         -10.6875                  IN - OUT =           0.0000

     PERCENT DISCREPANCY =          -0.00         PERCENT DISCREPANCY =           0.00



1
  VOLUMETRIC BUDGET FOR ENTIRE MODEL AT END OF TIME STEP   30, STRESS PERIOD  16
  ------------------------------------------------------------------------------

     CUMULATIVE VOLUMES      L**3       RATES FOR THIS TIME STEP      L**3/T
     ------------------                 ------------------------

           IN:                                      IN:
           ---                                      ---
             STORAGE     =    22990626.0000               STORAGE     =           0.4314
       CONSTANT HEAD     =           0.0000         CONSTANT HEAD     =           0.0000
     HEAD DEP BOUNDS     =    11295500.0000       HEAD DEP BOUNDS     =           0.2856
      STREAM LEAKAGE     =   475360992.0000        STREAM LEAKAGE     =          13.0974
        UZF RECHARGE     =      674797.2500          UZF RECHARGE     =       3.3415E-02
               GW ET     =           0.0000                 GW ET     =           0.0000
     SURFACE LEAKAGE     =           0.0000       SURFACE LEAKAGE     =           0.0000
           AG WELLS      =           0.0000             AG WELLS      =           0.0000

                TOTAL IN =   510321888.0000                  TOTAL IN =          13.8477

          OUT:                                     OUT:
          ----                                     ----
             STORAGE     =    72882344.0000               STORAGE     =           2.7425
       CONSTANT HEAD     =           0.0000         CONSTANT HEAD     =           0.0000
     HEAD DEP BOUNDS     =    11554800.0000       HEAD DEP BOUNDS     =           0.2964
      STREAM LEAKAGE     =   419203136.0000        STREAM LEAKAGE     =          10.8100
        UZF RECHARGE     =           0.0000          UZF RECHARGE     =           0.0000
               GW ET     =     6692063.5000                 GW ET     =       2.9639E-12
     SURFACE LEAKAGE     =           0.0000       SURFACE LEAKAGE     =           0.0000
           AG WELLS      =           0.0000             AG WELLS      =           0.0000

               TOTAL OUT =   510332352.0000                 TOTAL OUT =          13.8489

                IN - OUT =      -10464.0000                  IN - OUT =      -1.1368E-03

     PERCENT DISCREPANCY =          -0.00         PERCENT DISCREPANCY =          -0.01






         TIME SUMMARY AT END OF TIME STEP   30 IN STRESS PERIOD   16
                    SECONDS     MINUTES      HOURS       DAYS        YEARS
                    -----------------------------------------------------------
   TIME STEP LENGTH  87667.      1461.1      24.352      1.0147     2.77799E-03
 STRESS PERIOD TIME 2.63000E+06  43833.      730.56      30.440     8.33397E-02
         TOTAL TIME 3.95364E+07 6.58940E+05  10982.      457.60      1.2528    
1
1
                            STRESS PERIOD NO.   17, LENGTH =   2630000.    
                            -----------------------------------------------

                              NUMBER OF TIME STEPS =    30

                               MULTIPLIER FOR DELT =     1.000

                            INITIAL TIME STEP SIZE =   87666.66    

 REUSING NON-PARAMETER GHB CELLS FROM LAST STRESS PERIOD

      2 GHB CELLS

 REUSING STREAM SEGMENT DATA FROM LAST STRESS PERIOD



            AREAL INFILTRATION RATE
 READING ON UNIT   19 WITH FORMAT: (10F4.0)            

            1           2           3           4           5           6           7           8           9          10
 ........................................................................................................................
   1   1.2000E-09   0.000       0.000       0.000       0.000       0.000       0.000       0.000       0.000       0.000    
   2   2.1000E-09  2.0000E-09  8.0000E-10  8.5000E-09   0.000       0.000       0.000       0.000       0.000       0.000    
   3   5.0000E-10  1.1000E-09  8.8000E-09  5.5000E-09   0.000       0.000       0.000       0.000       0.000       0.000    
   4   8.5000E-09  1.1000E-09  1.1000E-09  1.1000E-09  2.0000E-09   0.000       0.000       0.000       0.000       0.000    
   5   8.5000E-09  1.1000E-09  1.1000E-09  1.1000E-09  1.1000E-09   0.000       0.000       0.000       0.000       0.000    
   6   8.5000E-09  5.2000E-09  2.1000E-09  1.1000E-09  1.5000E-09   0.000       0.000       0.000       0.000       0.000    
   7   8.5000E-09  5.2000E-09  2.1000E-09  1.2000E-09  2.0000E-09   0.000       0.000       0.000       0.000       0.000    
   8   5.0000E-10  5.2000E-09  2.1000E-09  1.2000E-09  5.0000E-09   0.000       0.000       0.000       0.000       0.000    
   9   5.0000E-10  5.2000E-09  2.1000E-09  1.2000E-09  5.0000E-09   0.000       0.000       0.000       0.000       0.000    
  10   5.0000E-10  5.2000E-09  2.1000E-09  1.2000E-09  5.8000E-09   0.000       0.000       0.000       0.000       0.000    
  11   1.0000E-10  1.1000E-09  1.1000E-09  1.2000E-09  5.0000E-09   0.000       0.000       0.000       0.000       0.000    
  12   1.1000E-09  1.1000E-09  1.1000E-09  1.1000E-09  2.0000E-09   0.000       0.000       0.000       0.000       0.000    
  13   1.1000E-09  2.2000E-09  2.2000E-09  2.1000E-09  1.0000E-09   0.000       0.000       0.000       0.000       0.000    
  14   2.0000E-10  5.5000E-09  5.5000E-09  5.2000E-09  1.0000E-09   0.000       0.000       0.000       0.000       0.000    
  15    0.000      8.8000E-09  8.8000E-09   0.000       0.000       0.000       0.000       0.000       0.000       0.000    

                  ET RATE =  2.500000E-08

 USING ET EXTINCTION DEPTH FROM PREVIOUS STRESS PERIOD. CURRENT PERIOD IS:      17

 USING EXTINCTION WATER CONTENT FROM PREVIOUS STRESS PERIOD. CURRENT PERIOD IS:      17

 USING AIR ENTRY PRESSURE FROM PREVIOUS STRESS PERIOD. CURRENT PERIOD IS:      17

 USING ROOT PRESSURE HEAD FROM PREVIOUS STRESS PERIOD. CURRENT PERIOD IS:      17

 USING ROOT ACTIVITY FROM PREVIOUS STRESS PERIOD. CURRENT PERIOD IS:      17

 PROCESSING AG STRESS PERIOD DATA

 READING AG STRESS PERIOD DATA

 READING IRRIGATION SEGMENT

 READING IRRIGATION WELL

 READING SUPPLEMENTAL WELL

 END PROCESSING AG STRESS PERIOD DATA OPTIONS
 
 SOLVING FOR HEAD 
                                                   Max.-Head-Change                         Max.-Flux-Residual
  Residual-Control   Outer-Iter.   Inner-Iter.     Column Row Layer    Maximum-Head-Change  Column Row Layer    Maximum-Flux-Residual          L2-NORM 
          0                 1           2             4   13     1      -0.5232800605E-02       4   13    1        -0.3037809823E+00      0.6413358131E+00
          0                 2           2             2    2     1      -0.3885128633E-03       2   13    1         0.2293351231E-01      0.5301410815E-01
          0                 3           1             3   13     1       0.2782435305E-04       3   13    1         0.1652135633E-02      0.3964616717E-02

    ------------------------------------------------
       NWT REQUIRED            3 OUTER ITERATIONS 
       AND A TOTAL OF          5 INNER ITERATIONS.
    ------------------------------------------------

 NO OUTPUT CONTROL FOR STRESS PERIOD   17   TIME STEP    1
 
 SOLVING FOR HEAD 
                                                   Max.-Head-Change                         Max.-Flux-Residual
  Residual-Control   Outer-Iter.   Inner-Iter.     Column Row Layer    Maximum-Head-Change  Column Row Layer    Maximum-Flux-Residual          L2-NORM 
          0                 1           2             4   13     1      -0.5316412456E-02       4   13    1        -0.3083443946E+00      0.6409657956E+00
          0                 2           2             4   13     1       0.5129818893E-03       4   13    1         0.3059235375E-01      0.6322533482E-01
          0                 3           1             4   13     1      -0.3453881486E-04       4   13    1        -0.2117930306E-02      0.4345549541E-02

    ------------------------------------------------
       NWT REQUIRED            3 OUTER ITERATIONS 
       AND A TOTAL OF          5 INNER ITERATIONS.
    ------------------------------------------------

 NO OUTPUT CONTROL FOR STRESS PERIOD   17   TIME STEP    2
 
 SOLVING FOR HEAD 
                                                   Max.-Head-Change                         Max.-Flux-Residual
  Residual-Control   Outer-Iter.   Inner-Iter.     Column Row Layer    Maximum-Head-Change  Column Row Layer    Maximum-Flux-Residual          L2-NORM 
          0                 1           2             4   13     1      -0.4771845156E-02       4   13    1        -0.2767772197E+00      0.6075908808E+00
          0                 2           2             4   13     1       0.4604730611E-03       4   13    1         0.2746263827E-01      0.5999512455E-01
          0                 3           1             4   13     1      -0.3099955495E-04       4   13    1        -0.1901035229E-02      0.4128881739E-02

    ------------------------------------------------
       NWT REQUIRED            3 OUTER ITERATIONS 
       AND A TOTAL OF          5 INNER ITERATIONS.
    ------------------------------------------------

 NO OUTPUT CONTROL FOR STRESS PERIOD   17   TIME STEP    3
 
 SOLVING FOR HEAD 
                                                   Max.-Head-Change                         Max.-Flux-Residual
  Residual-Control   Outer-Iter.   Inner-Iter.     Column Row Layer    Maximum-Head-Change  Column Row Layer    Maximum-Flux-Residual          L2-NORM 
          0                 1           2             4   13     1      -0.4281750020E-02       4   13    1        -0.2483683605E+00      0.5784095172E+00
          0                 2           2             4   13     1       0.4132095048E-03       4   13    1         0.2464563041E-01      0.5717323493E-01
          0                 3           1             4   13     1      -0.2782978532E-04       4   13    1        -0.1706768036E-02      0.3940992586E-02

    ------------------------------------------------
       NWT REQUIRED            3 OUTER ITERATIONS 
       AND A TOTAL OF          5 INNER ITERATIONS.
    ------------------------------------------------

 NO OUTPUT CONTROL FOR STRESS PERIOD   17   TIME STEP    4
 
 SOLVING FOR HEAD 
                                                   Max.-Head-Change                         Max.-Flux-Residual
  Residual-Control   Outer-Iter.   Inner-Iter.     Column Row Layer    Maximum-Head-Change  Column Row Layer    Maximum-Flux-Residual          L2-NORM 
          0                 1           2             3   13     1      -0.6245518446E-02       3   13    1        -0.3637804945E+00      0.6848879019E+00
          0                 2           2             3   13     1       0.5936823013E-03       3   13    1         0.3555392184E-01      0.6752322929E-01
          0                 3           1             4   13     1      -0.3929454522E-04       4   13    1        -0.2446140535E-02      0.4638725374E-02

    ------------------------------------------------
       NWT REQUIRED            3 OUTER ITERATIONS 
       AND A TOTAL OF          5 INNER ITERATIONS.
    ------------------------------------------------

 NO OUTPUT CONTROL FOR STRESS PERIOD   17   TIME STEP    5
 
 SOLVING FOR HEAD 
                                                   Max.-Head-Change                         Max.-Flux-Residual
  Residual-Control   Outer-Iter.   Inner-Iter.     Column Row Layer    Maximum-Head-Change  Column Row Layer    Maximum-Flux-Residual          L2-NORM 
          0                 1           2             3   13     1      -0.5577851857E-02       3   13    1        -0.3249033613E+00      0.6385043421E+00
          0                 2           2             3   13     1       0.5303085388E-03       3   13    1         0.3175992701E-01      0.6301328794E-01
          0                 3           1             3   13     1      -0.3496827662E-04       4   13    1        -0.2158615643E-02      0.4334341626E-02

    ------------------------------------------------
       NWT REQUIRED            3 OUTER ITERATIONS 
       AND A TOTAL OF          5 INNER ITERATIONS.
    ------------------------------------------------

 NO OUTPUT CONTROL FOR STRESS PERIOD   17   TIME STEP    6
 
 SOLVING FOR HEAD 
                                                   Max.-Head-Change                         Max.-Flux-Residual
  Residual-Control   Outer-Iter.   Inner-Iter.     Column Row Layer    Maximum-Head-Change  Column Row Layer    Maximum-Flux-Residual          L2-NORM 
          0                 1           2             3   13     1      -0.4981347379E-02       3   13    1        -0.2901700700E+00      0.5989476354E+00
          0                 2           2             3   13     1       0.4737027941E-03       3   13    1         0.2837138631E-01      0.5916140659E-01
          0                 3           1             3   13     1      -0.3121809834E-04       3   13    1        -0.1922644113E-02      0.4061077478E-02

    ------------------------------------------------
       NWT REQUIRED            3 OUTER ITERATIONS 
       AND A TOTAL OF          5 INNER ITERATIONS.
    ------------------------------------------------

 NO OUTPUT CONTROL FOR STRESS PERIOD   17   TIME STEP    7
 
 SOLVING FOR HEAD 
                                                   Max.-Head-Change                         Max.-Flux-Residual
  Residual-Control   Outer-Iter.   Inner-Iter.     Column Row Layer    Maximum-Head-Change  Column Row Layer    Maximum-Flux-Residual          L2-NORM 
          0                 1           2             3   13     1      -0.4448241517E-02       3   13    1        -0.2591285850E+00      0.5653563973E+00
          0                 2           2             2   13     1      -0.8484109409E-03       2   13    1        -0.4801159787E-01      0.9009806023E-01
          0                 3           1             2    2     1       0.2568378676E-04       2    2    1         0.1414044353E-02      0.3259352614E-02

    ------------------------------------------------
       NWT REQUIRED            3 OUTER ITERATIONS 
       AND A TOTAL OF          5 INNER ITERATIONS.
    ------------------------------------------------

 NO OUTPUT CONTROL FOR STRESS PERIOD   17   TIME STEP    8
 
 SOLVING FOR HEAD 
                                                   Max.-Head-Change                         Max.-Flux-Residual
  Residual-Control   Outer-Iter.   Inner-Iter.     Column Row Layer    Maximum-Head-Change  Column Row Layer    Maximum-Flux-Residual          L2-NORM 
          0                 1           2             3   13     1      -0.3867271208E-02       3   13    1        -0.2253410499E+00      0.5297776522E+00
          0                 2           2             2    2     1      -0.3756286175E-03       3   13    1         0.2204585678E-01      0.5248225340E-01
          0                 3           1             2    2     1       0.2557891139E-04       3   13    1        -0.1499173320E-02      0.3629846079E-02

    ------------------------------------------------
       NWT REQUIRED            3 OUTER ITERATIONS 
       AND A TOTAL OF          5 INNER ITERATIONS.
    ------------------------------------------------

 NO OUTPUT CONTROL FOR STRESS PERIOD   17   TIME STEP    9
 
 SOLVING FOR HEAD 
                                                   Max.-Head-Change                         Max.-Flux-Residual
  Residual-Control   Outer-Iter.   Inner-Iter.     Column Row Layer    Maximum-Head-Change  Column Row Layer    Maximum-Flux-Residual          L2-NORM 
          0                 1           2             2    2     1       0.3845967719E-02       3   13    1        -0.2011665902E+00      0.5070147312E+00
          0                 2           2             2    2     1      -0.3741083022E-03       2    2    1        -0.2003537422E-01      0.5028370868E-01
          0                 3           1             2    2     1       0.2547538317E-04       2    2    1         0.1402476476E-02      0.3481693626E-02

    ------------------------------------------------
       NWT REQUIRED            3 OUTER ITERATIONS 
       AND A TOTAL OF          5 INNER ITERATIONS.
    ------------------------------------------------

 NO OUTPUT CONTROL FOR STRESS PERIOD   17   TIME STEP   10
 
 SOLVING FOR HEAD 
                                                   Max.-Head-Change                         Max.-Flux-Residual
  Residual-Control   Outer-Iter.   Inner-Iter.     Column Row Layer    Maximum-Head-Change  Column Row Layer    Maximum-Flux-Residual          L2-NORM 
          0                 1           2             2    2     1       0.3830451211E-02       2    2    1         0.1995384620E+00      0.4879412670E+00
          0                 2           2             2    2     1      -0.3725989625E-03       2    2    1        -0.1995388017E-01      0.4844242684E-01
          0                 3           1             2    2     1       0.2537260330E-04       2    2    1         0.1396771904E-02      0.3358663076E-02

    ------------------------------------------------
       NWT REQUIRED            3 OUTER ITERATIONS 
       AND A TOTAL OF          5 INNER ITERATIONS.
    ------------------------------------------------

 NO OUTPUT CONTROL FOR STRESS PERIOD   17   TIME STEP   11
 
 SOLVING FOR HEAD 
                                                   Max.-Head-Change                         Max.-Flux-Residual
  Residual-Control   Outer-Iter.   Inner-Iter.     Column Row Layer    Maximum-Head-Change  Column Row Layer    Maximum-Flux-Residual          L2-NORM 
          0                 1           2             2    2     1       0.3815220107E-02       2    2    1         0.1987385215E+00      0.4720016915E+00
          0                 2           2             2    2     1      -0.3711173850E-03       2    2    1        -0.1987388569E-01      0.4690713546E-01
          0                 3           1             2    2     1       0.2527171327E-04       2    2    1         0.1391172289E-02      0.3256954181E-02

    ------------------------------------------------
       NWT REQUIRED            3 OUTER ITERATIONS 
       AND A TOTAL OF          5 INNER ITERATIONS.
    ------------------------------------------------

 NO OUTPUT CONTROL FOR STRESS PERIOD   17   TIME STEP   12
 
 SOLVING FOR HEAD 
                                                   Max.-Head-Change                         Max.-Flux-Residual
  Residual-Control   Outer-Iter.   Inner-Iter.     Column Row Layer    Maximum-Head-Change  Column Row Layer    Maximum-Flux-Residual          L2-NORM 
          0                 1           2             2    2     1       0.3800096046E-02       2    2    1         0.1979442333E+00      0.4587061898E+00
          0                 2           2             2    2     1      -0.3696462192E-03       2    2    1        -0.1979445643E-01      0.4562692793E-01
          0                 3           1             2    2     1       0.2517153184E-04       2    2    1         0.1385612224E-02      0.3171694834E-02

    ------------------------------------------------
       NWT REQUIRED            3 OUTER ITERATIONS 
       AND A TOTAL OF          5 INNER ITERATIONS.
    ------------------------------------------------

 NO OUTPUT CONTROL FOR STRESS PERIOD   17   TIME STEP   13
 
 SOLVING FOR HEAD 
                                                   Max.-Head-Change                         Max.-Flux-Residual
  Residual-Control   Outer-Iter.   Inner-Iter.     Column Row Layer    Maximum-Head-Change  Column Row Layer    Maximum-Flux-Residual          L2-NORM 
          0                 1           2             1    1     1       0.3791292434E-02       2    2    1         0.1971646410E+00      0.4476327089E+00
          0                 2           2             1    1     1      -0.3687897650E-03       2    2    1        -0.1971649679E-01      0.4456174472E-01
          0                 3           1             1    1     1       0.2511321200E-04       2    2    1         0.1380155061E-02      0.3101922807E-02

    ------------------------------------------------
       NWT REQUIRED            3 OUTER ITERATIONS 
       AND A TOTAL OF          5 INNER ITERATIONS.
    ------------------------------------------------

 NO OUTPUT CONTROL FOR STRESS PERIOD   17   TIME STEP   14
 
 SOLVING FOR HEAD 
                                                   Max.-Head-Change                         Max.-Flux-Residual
  Residual-Control   Outer-Iter.   Inner-Iter.     Column Row Layer    Maximum-Head-Change  Column Row Layer    Maximum-Flux-Residual          L2-NORM 
          0                 1           2             1    1     1       0.3787606170E-02       1    1    1         0.1966085295E+00      0.4383958517E+00
          0                 2           2             1    1     1      -0.3684311905E-03       1    1    1        -0.1966087894E-01      0.4366796225E-01
          0                 3           1             1    1     1       0.2508879442E-04       1    1    1         0.1376261876E-02      0.3041679916E-02

    ------------------------------------------------
       NWT REQUIRED            3 OUTER ITERATIONS 
       AND A TOTAL OF          5 INNER ITERATIONS.
    ------------------------------------------------

 NO OUTPUT CONTROL FOR STRESS PERIOD   17   TIME STEP   15
 
 SOLVING FOR HEAD 
                                                   Max.-Head-Change                         Max.-Flux-Residual
  Residual-Control   Outer-Iter.   Inner-Iter.     Column Row Layer    Maximum-Head-Change  Column Row Layer    Maximum-Flux-Residual          L2-NORM 
          0                 1           2             1    1     1       0.3783933128E-02       1    1    1         0.1964174030E+00      0.4307068692E+00
          0                 2           2             1    1     1      -0.3680739019E-03       1    1    1        -0.1964176616E-01      0.4293397264E-01
          0                 3           1             1    1     1       0.2506446440E-04       1    1    1         0.1374923982E-02      0.2992594726E-02

    ------------------------------------------------
       NWT REQUIRED            3 OUTER ITERATIONS 
       AND A TOTAL OF          5 INNER ITERATIONS.
    ------------------------------------------------

 NO OUTPUT CONTROL FOR STRESS PERIOD   17   TIME STEP   16
 
 SOLVING FOR HEAD 
                                                   Max.-Head-Change                         Max.-Flux-Residual
  Residual-Control   Outer-Iter.   Inner-Iter.     Column Row Layer    Maximum-Head-Change  Column Row Layer    Maximum-Flux-Residual          L2-NORM 
          0                 1           2             1    1     1       0.3780295777E-02       1    1    1         0.1962281323E+00      0.4242836926E+00
          0                 2           2             1    1     1      -0.3677200850E-03       1    1    1        -0.1962283898E-01      0.4231582264E-01
          0                 3           1             1    1     1       0.2504037083E-04       1    1    1         0.1373599080E-02      0.2951856530E-02

    ------------------------------------------------
       NWT REQUIRED            3 OUTER ITERATIONS 
       AND A TOTAL OF          5 INNER ITERATIONS.
    ------------------------------------------------

 NO OUTPUT CONTROL FOR STRESS PERIOD   17   TIME STEP   17
 
 SOLVING FOR HEAD 
                                                   Max.-Head-Change                         Max.-Flux-Residual
  Residual-Control   Outer-Iter.   Inner-Iter.     Column Row Layer    Maximum-Head-Change  Column Row Layer    Maximum-Flux-Residual          L2-NORM 
          0                 1           2             1    1     1       0.3776648950E-02       1    1    1         0.1960383715E+00      0.4188994645E+00
          0                 2           2             1    1     1      -0.3673653467E-03       1    1    1        -0.1960386280E-01      0.4179852704E-01
          0                 3           1             1    1     1       0.2501621453E-04       1    1    1         0.1372270755E-02      0.2918852618E-02

    ------------------------------------------------
       NWT REQUIRED            3 OUTER ITERATIONS 
       AND A TOTAL OF          5 INNER ITERATIONS.
    ------------------------------------------------

 NO OUTPUT CONTROL FOR STRESS PERIOD   17   TIME STEP   18
 
 SOLVING FOR HEAD 
                                                   Max.-Head-Change                         Max.-Flux-Residual
  Residual-Control   Outer-Iter.   Inner-Iter.     Column Row Layer    Maximum-Head-Change  Column Row Layer    Maximum-Flux-Residual          L2-NORM 
          0                 1           2             1    1     1       0.3773015179E-02       1    1    1         0.1958492897E+00      0.4143787179E+00
          0                 2           2             1    1     1      -0.3670118780E-03       1    1    1        -0.1958495450E-01      0.4136317781E-01
          0                 3           1             1    1     1       0.2499214463E-04       1    1    1         0.1370947176E-02      0.2888724492E-02

    ------------------------------------------------
       NWT REQUIRED            3 OUTER ITERATIONS 
       AND A TOTAL OF          5 INNER ITERATIONS.
    ------------------------------------------------

 NO OUTPUT CONTROL FOR STRESS PERIOD   17   TIME STEP   19
 
 SOLVING FOR HEAD 
                                                   Max.-Head-Change                         Max.-Flux-Residual
  Residual-Control   Outer-Iter.   Inner-Iter.     Column Row Layer    Maximum-Head-Change  Column Row Layer    Maximum-Flux-Residual          L2-NORM 
          0                 1           2             1    1     1       0.3769394376E-02       1    1    1         0.1956608849E+00      0.4105517981E+00
          0                 2           2             1    1     1      -0.3666596709E-03       1    1    1        -0.1956611391E-01      0.4099431545E-01
          0                 3           1             1    1     1       0.2496816063E-04       1    1    1         0.1369628329E-02      0.2861821981E-02

    ------------------------------------------------
       NWT REQUIRED            3 OUTER ITERATIONS 
       AND A TOTAL OF          5 INNER ITERATIONS.
    ------------------------------------------------

 NO OUTPUT CONTROL FOR STRESS PERIOD   17   TIME STEP   20
 
 SOLVING FOR HEAD 
                                                   Max.-Head-Change                         Max.-Flux-Residual
  Residual-Control   Outer-Iter.   Inner-Iter.     Column Row Layer    Maximum-Head-Change  Column Row Layer    Maximum-Flux-Residual          L2-NORM 
          0                 1           2             1    1     1       0.3765786479E-02       1    1    1         0.1954731524E+00      0.4073060055E+00
          0                 2           2             1    1     1      -0.3663087195E-03       1    1    1        -0.1954734055E-01      0.4068149551E-01
          0                 3           1             1    1     1       0.2494426231E-04       1    1    1         0.1368314202E-02      0.2843388034E-02

    ------------------------------------------------
       NWT REQUIRED            3 OUTER ITERATIONS 
       AND A TOTAL OF          5 INNER ITERATIONS.
    ------------------------------------------------

 NO OUTPUT CONTROL FOR STRESS PERIOD   17   TIME STEP   21
 
 SOLVING FOR HEAD 
                                                   Max.-Head-Change                         Max.-Flux-Residual
  Residual-Control   Outer-Iter.   Inner-Iter.     Column Row Layer    Maximum-Head-Change  Column Row Layer    Maximum-Flux-Residual          L2-NORM 
          0                 1           2             1    1     1       0.3762191426E-02       1    1    1         0.1952860891E+00      0.4045289988E+00
          0                 2           2             1    1     1      -0.3659590171E-03       1    1    1        -0.1952863412E-01      0.4041277587E-01
          0                 3           1             1    1     1       0.2492044848E-04       1    1    1         0.1367004732E-02      0.2825290001E-02

    ------------------------------------------------
       NWT REQUIRED            3 OUTER ITERATIONS 
       AND A TOTAL OF          5 INNER ITERATIONS.
    ------------------------------------------------

 NO OUTPUT CONTROL FOR STRESS PERIOD   17   TIME STEP   22
 
 SOLVING FOR HEAD 
                                                   Max.-Head-Change                         Max.-Flux-Residual
  Residual-Control   Outer-Iter.   Inner-Iter.     Column Row Layer    Maximum-Head-Change  Column Row Layer    Maximum-Flux-Residual          L2-NORM 
          0                 1           2             1    1     1       0.3758609181E-02       1    1    1         0.1950996917E+00      0.4021448574E+00
          0                 2           2             1    1     1      -0.3656105601E-03       1    1    1        -0.1950999425E-01      0.4018209791E-01
          0                 3           1             1    1     1       0.2489671986E-04       1    1    1         0.1365699934E-02      0.2809663618E-02

    ------------------------------------------------
       NWT REQUIRED            3 OUTER ITERATIONS 
       AND A TOTAL OF          5 INNER ITERATIONS.
    ------------------------------------------------

 NO OUTPUT CONTROL FOR STRESS PERIOD   17   TIME STEP   23
 
 SOLVING FOR HEAD 
                                                   Max.-Head-Change                         Max.-Flux-Residual
  Residual-Control   Outer-Iter.   Inner-Iter.     Column Row Layer    Maximum-Head-Change  Column Row Layer    Maximum-Flux-Residual          L2-NORM 
          0                 1           2             1    1     1       0.3755039658E-02       1    1    1         0.1949139585E+00      0.4000743908E+00
          0                 2           2             1    1     1      -0.3652633417E-03       1    1    1        -0.1949142084E-01      0.3998142317E-01
          0                 3           1             1    1     1       0.2487307572E-04       1    1    1         0.1364399813E-02      0.2796432841E-02

    ------------------------------------------------
       NWT REQUIRED            3 OUTER ITERATIONS 
       AND A TOTAL OF          5 INNER ITERATIONS.
    ------------------------------------------------

 NO OUTPUT CONTROL FOR STRESS PERIOD   17   TIME STEP   24
 
 SOLVING FOR HEAD 
                                                   Max.-Head-Change                         Max.-Flux-Residual
  Residual-Control   Outer-Iter.   Inner-Iter.     Column Row Layer    Maximum-Head-Change  Column Row Layer    Maximum-Flux-Residual          L2-NORM 
          0                 1           2             1    1     1       0.3751482820E-02       1    1    1         0.1947288848E+00      0.3982556677E+00
          0                 2           2             1    1     1      -0.3649173568E-03       1    1    1        -0.1947291337E-01      0.3980435352E-01
          0                 3           1             1    1     1       0.2484951537E-04       1    1    1         0.1363104287E-02      0.2784242674E-02

    ------------------------------------------------
       NWT REQUIRED            3 OUTER ITERATIONS 
       AND A TOTAL OF          5 INNER ITERATIONS.
    ------------------------------------------------

 NO OUTPUT CONTROL FOR STRESS PERIOD   17   TIME STEP   25
 
 SOLVING FOR HEAD 
                                                   Max.-Head-Change                         Max.-Flux-Residual
  Residual-Control   Outer-Iter.   Inner-Iter.     Column Row Layer    Maximum-Head-Change  Column Row Layer    Maximum-Flux-Residual          L2-NORM 
          0                 1           2             1    1     1       0.3747938583E-02       1    1    1         0.1945444688E+00      0.3966488695E+00
          0                 2           2             1    1     1      -0.3645725971E-03       1    1    1        -0.1945447165E-01      0.3964801442E-01
          0                 3           1             1    1     1       0.2482603857E-04       1    1    1         0.1361813364E-02      0.2773384298E-02

    ------------------------------------------------
       NWT REQUIRED            3 OUTER ITERATIONS 
       AND A TOTAL OF          5 INNER ITERATIONS.
    ------------------------------------------------

 NO OUTPUT CONTROL FOR STRESS PERIOD   17   TIME STEP   26
 
 SOLVING FOR HEAD 
                                                   Max.-Head-Change                         Max.-Flux-Residual
  Residual-Control   Outer-Iter.   Inner-Iter.     Column Row Layer    Maximum-Head-Change  Column Row Layer    Maximum-Flux-Residual          L2-NORM 
          0                 1           2             1    1     1       0.3744406929E-02       1    1    1         0.1943607062E+00      0.3952288680E+00
          0                 2           2             1    1     1      -0.3642290624E-03       1    1    1        -0.1943609531E-01      0.3950909635E-01
          0                 3           1             1    1     1       0.2480264507E-04       1    1    1         0.1360527015E-02      0.2764339740E-02

    ------------------------------------------------
       NWT REQUIRED            3 OUTER ITERATIONS 
       AND A TOTAL OF          5 INNER ITERATIONS.
    ------------------------------------------------

 NO OUTPUT CONTROL FOR STRESS PERIOD   17   TIME STEP   27
 
 SOLVING FOR HEAD 
                                                   Max.-Head-Change                         Max.-Flux-Residual
  Residual-Control   Outer-Iter.   Inner-Iter.     Column Row Layer    Maximum-Head-Change  Column Row Layer    Maximum-Flux-Residual          L2-NORM 
          0                 1           2             1    1     1       0.3740887756E-02       1    1    1         0.1941775960E+00      0.3939442545E+00
          0                 2           2             1    1     1      -0.3638867414E-03       1    1    1        -0.1941778419E-01      0.3938352407E-01
          0                 3           1             1    1     1       0.2477933441E-04       1    1    1         0.1359245255E-02      0.2755880884E-02

    ------------------------------------------------
       NWT REQUIRED            3 OUTER ITERATIONS 
       AND A TOTAL OF          5 INNER ITERATIONS.
    ------------------------------------------------

 NO OUTPUT CONTROL FOR STRESS PERIOD   17   TIME STEP   28
 
 SOLVING FOR HEAD 
                                                   Max.-Head-Change                         Max.-Flux-Residual
  Residual-Control   Outer-Iter.   Inner-Iter.     Column Row Layer    Maximum-Head-Change  Column Row Layer    Maximum-Flux-Residual          L2-NORM 
          0                 1           2             1    1     1       0.3737381030E-02       1    1    1         0.1939951329E+00      0.3927793633E+00
          0                 2           2             1    1     1      -0.3635456308E-03       1    1    1        -0.1939953776E-01      0.3926927700E-01
          0                 3           1             1    1     1       0.2475610588E-04       1    1    1         0.1357967995E-02      0.2748227291E-02

    ------------------------------------------------
       NWT REQUIRED            3 OUTER ITERATIONS 
       AND A TOTAL OF          5 INNER ITERATIONS.
    ------------------------------------------------

 NO OUTPUT CONTROL FOR STRESS PERIOD   17   TIME STEP   29
 
 SOLVING FOR HEAD 
                                                   Max.-Head-Change                         Max.-Flux-Residual
  Residual-Control   Outer-Iter.   Inner-Iter.     Column Row Layer    Maximum-Head-Change  Column Row Layer    Maximum-Flux-Residual          L2-NORM 
          0                 1           2             1    1     1       0.3264345414E-02       1    1    1         0.1694235244E+00      0.4430690537E+00
          0                 2           2             1    1     1      -0.3175320476E-03       1    1    1        -0.1694236922E-01      0.4380090774E-01
          0                 3           1             1    1     1       0.2162275293E-04       1    1    1         0.1185966203E-02      0.3020051932E-02

    ------------------------------------------------
       NWT REQUIRED            3 OUTER ITERATIONS 
       AND A TOTAL OF          5 INNER ITERATIONS.
    ------------------------------------------------

 NO OUTPUT CONTROL FOR STRESS PERIOD   17   TIME STEP   30



 STREAM LISTING     PERIOD     17   STEP       30

 LAYER ROW COL. STREAM  RCH.  FLOW INTO     FLOW TO   FLOW OUT OF   OVRLND.     DIRECT     STREAM       STREAM     STREAM     STREAM   STREAMBED  STREAMBED
                SEG.NO.  NO.  STRM. RCH.    AQUIFER    STRM. RCH.    RUNOFF     PRECIP       ET          HEAD       DEPTH      WIDTH   CONDCTNC.   GRADIENT

   1    1    1     1     1    4.9431E+01  3.3436E-01   4.9097E+01  0.000E+00  0.000E+00  0.000E+00  1.09444E+03  1.395E+00  1.690E+01  7.607E-02  1.465E+00
   1    2    2     1     2    4.9097E+01  5.1808E-01   4.8579E+01  0.000E+00  0.000E+00  0.000E+00  1.08945E+03  1.393E+00  1.685E+01  1.179E-01  1.464E+00
   1    3    3     1     3    4.8579E+01  4.4210E-01   4.8137E+01  0.000E+00  0.000E+00  0.000E+00  1.08381E+03  1.390E+00  1.679E+01  1.007E-01  1.463E+00
   1    3    4     1     4    4.8137E+01  4.0732E-01   4.7729E+01  0.000E+00  0.000E+00  0.000E+00  1.07879E+03  1.387E+00  1.673E+01  9.285E-02  1.462E+00
   1    4    5     2     1    4.5729E+01  3.6899E-01   4.5360E+01  0.000E+00  0.000E+00  0.000E+00  1.07366E+03  1.731E+00  1.200E+01  7.800E-02  1.577E+00
   1    5    6     2     2    4.5360E+01  2.8339E-01   4.5077E+01  0.000E+00  0.000E+00  0.000E+00  1.06823E+03  1.723E+00  1.200E+01  6.000E-02  1.574E+00
   1    6    6     2     3    4.5077E+01  2.8300E-01   4.4794E+01  0.000E+00  0.000E+00  0.000E+00  1.06351E+03  1.717E+00  1.200E+01  6.000E-02  1.572E+00
   1    7    6     2     4    4.4794E+01  2.8261E-01   4.4511E+01  0.000E+00  0.000E+00  0.000E+00  1.05879E+03  1.710E+00  1.200E+01  6.000E-02  1.570E+00
   1    8    6     2     5    4.4511E+01  2.8222E-01   4.4229E+01  0.000E+00  0.000E+00  0.000E+00  1.05406E+03  1.704E+00  1.200E+01  6.000E-02  1.568E+00
   1    3    5     3     1    2.0000E+00  2.8252E-01   1.7175E+00  0.000E+00  0.000E+00  0.000E+00  1.07555E+03  1.909E+00  9.636E+00  7.227E-02  1.955E+00
   1    3    6     3     2    1.7175E+00  2.4905E-01   1.4684E+00  0.000E+00  0.000E+00  0.000E+00  1.07264E+03  1.727E+00  8.909E+00  6.682E-02  1.864E+00
   1    3    7     3     3    1.4684E+00  1.9718E-01   1.2712E+00  0.000E+00  0.000E+00  0.000E+00  1.06987E+03  1.555E+00  8.218E+00  5.547E-02  1.777E+00
   1    4    8     3     4    1.2712E+00  2.2567E-01   1.0456E+00  0.000E+00  0.000E+00  0.000E+00  1.06682E+03  1.364E+00  7.455E+00  6.709E-02  1.682E+00
   1    5    8     3     5    1.0456E+00  1.5790E-01   8.8768E-01  0.000E+00  0.000E+00  0.000E+00  1.06362E+03  1.164E+00  6.655E+00  4.991E-02  1.582E+00
   1    6    8     3     6    8.8768E-01  5.5980E-02   8.3170E-01  0.000E+00  0.000E+00  0.000E+00  1.06158E+03  1.036E+00  6.145E+00  1.844E-02  1.518E+00
   1    5   10     4     1    1.0000E+01  9.0919E-02   9.9091E+00  0.000E+00  0.000E+00  0.000E+00  1.07836E+03  6.368E-01  1.000E+01  2.500E-02  1.212E+00
   1    5    9     4     2    9.9091E+00  1.8158E-01   9.7275E+00  0.000E+00  0.000E+00  0.000E+00  1.07154E+03  6.315E-01  1.000E+01  5.000E-02  1.211E+00
   1    6    8     4     3    9.7275E+00  1.2689E-01   9.6006E+00  0.000E+00  0.000E+00  0.000E+00  1.06381E+03  6.256E-01  1.000E+01  3.500E-02  1.209E+00
   1    6    8     5     1    1.0432E+01  2.2686E-01   1.0205E+01  0.000E+00  0.000E+00  0.000E+00  1.05868E+03  6.790E-01  1.542E+01  6.166E-02  1.226E+00
   1    7    7     5     2    1.0205E+01  2.7894E-01   9.9265E+00  0.000E+00  0.000E+00  0.000E+00  1.05417E+03  6.732E-01  1.519E+01  7.594E-02  1.224E+00
   1    8    7     5     3    9.9265E+00  1.9221E-01   9.7343E+00  0.000E+00  0.000E+00  0.000E+00  1.04992E+03  6.676E-01  1.497E+01  5.241E-02  1.223E+00
   1    8    6     5     4    9.7343E+00  1.3577E-01   9.5985E+00  0.000E+00  0.000E+00  0.000E+00  1.04691E+03  6.637E-01  1.482E+01  3.706E-02  1.221E+00
   1    9    6     6     1    5.3828E+01  2.9588E-01   5.3532E+01  0.000E+00  0.000E+00  0.000E+00  1.04466E+03  1.931E+00  1.200E+01  6.000E-02  1.644E+00
   1   10    7     6     2    5.3532E+01  2.9550E-01   5.3236E+01  0.000E+00  0.000E+00  0.000E+00  1.04011E+03  1.925E+00  1.200E+01  6.000E-02  1.642E+00
   1   11    7     6     3    5.3236E+01  2.9511E-01   5.2941E+01  0.000E+00  0.000E+00  0.000E+00  1.03555E+03  1.919E+00  1.200E+01  6.000E-02  1.640E+00
   1   12    7     6     4    5.2941E+01  2.9473E-01   5.2646E+01  0.000E+00  0.000E+00  0.000E+00  1.03100E+03  1.912E+00  1.200E+01  6.000E-02  1.637E+00
   1   13    7     6     5    5.2646E+01  1.5070E-02   5.2631E+01  0.000E+00  0.000E+00  0.000E+00  1.02782E+03  1.909E+00  1.200E+01  2.400E-02  2.093E-01
   1   14    9     7     1    1.5000E+02  1.3339E+00   1.4867E+02  0.000E+00  0.000E+00  0.000E+00  1.03987E+03  2.288E+00  5.529E+01  5.593E-01  7.950E-01
   1   13    8     7     2    1.4867E+02  1.8108E+00   1.4686E+02  0.000E+00  0.000E+00  0.000E+00  1.03478E+03  2.279E+00  5.526E+01  6.148E-01  9.818E-01
   1   13    7     7     3    1.4686E+02  1.3963E+00   1.4546E+02  0.000E+00  0.000E+00  0.000E+00  1.02969E+03  2.271E+00  5.522E+01  5.585E-01  8.334E-01
   1   13    6     8     1    1.9809E+02  9.4861E-01   1.9714E+02  0.000E+00  0.000E+00  0.000E+00  1.02500E+03  3.124E+00  4.529E+01  4.615E-01  6.851E-01
   1   13    5     8     2    1.9714E+02  1.5518E-01   1.9699E+02  0.000E+00  0.000E+00  0.000E+00  1.01875E+03  3.120E+00  4.525E+01  4.611E-01  1.122E-01
   1   13    4     8     3    1.9699E+02 -2.6238E+00   1.9961E+02  0.000E+00  0.000E+00  0.000E+00  1.01250E+03  3.128E+00  4.535E+01  4.621E+00 -1.892E-01
   1   13    3     8     4    1.9961E+02 -3.7585E+00   2.0337E+02  0.000E+00  0.000E+00  0.000E+00  1.00627E+03  3.146E+00  4.562E+01  4.649E+00 -2.695E-01
   1   13    2     8     5    2.0337E+02 -2.7014E+00   2.0607E+02  0.000E+00  0.000E+00  0.000E+00  1.00004E+03  3.165E+00  4.590E+01  4.677E+00 -1.925E-01
   1   13    1     8     6    2.0607E+02 -2.0582E+00   2.0813E+02  0.000E+00  0.000E+00  0.000E+00  9.95054E+02  3.179E+00  4.610E+01  2.818E+00 -2.434E-01
   1    8    6     9     1    0.0000E+00  0.0000E+00   0.0000E+00  0.000E+00  0.000E+00  0.000E+00  1.07875E+03  0.000E+00  4.000E+00  0.000E+00  1.000E+00
   1    8    5     9     2    0.0000E+00  0.0000E+00   0.0000E+00  0.000E+00  0.000E+00  0.000E+00  1.07825E+03  0.000E+00  4.000E+00  0.000E+00  1.000E+00





UNSATURATED ZONE PACKAGE VOLUMETRIC BUDGET FOR  TIME STEP    30 STRESS PERIOD   17
  ------------------------------------------------------------------------------



     CUMULATIVE VOLUMES      L**3       RATES FOR THIS TIME STEP      L**3/T
     ------------------                 ------------------------

           IN:                                      IN:
           ---                                      ---
        INFILTRATION =   186389636.5901          INFILTRATION =           4.4075

          OUT:                                     OUT:
          ----                                     ----
              UZF ET =   130495262.8353                UZF ET =           4.4075
        UZF RECHARGE =      674797.3606          UZF RECHARGE =       0.0000E+00

            IN - OUT =    55219576.3942              IN - OUT =       0.0000E+00

          STORAGE:                                 STORAGE:
          --------                                 --------
      STORAGE CHANGE =    55220222.8207        STORAGE CHANGE =      -4.2660E-14

 PERCENT DISCREPANCY IS DIFFERENCE BETWEEN IN-OUT MINUS CHANGE IN STORAGE
 DIVIDED BY THE AVERAGE OF IN AND OUT TIMES 100

 PERCENT DISCREPANCY =          -0.00     PERCENT DISCREPANCY =           0.00






1
  VOLUMETRIC BUDGET FOR ENTIRE MODEL AT END OF TIME STEP   30, STRESS PERIOD  17
  ------------------------------------------------------------------------------

     CUMULATIVE VOLUMES      L**3       RATES FOR THIS TIME STEP      L**3/T
     ------------------                 ------------------------

           IN:                                      IN:
           ---                                      ---
               AG WELLS  =           0.0000                 AG WELLS  =           0.0000
        DIVERSION SEGMEN =      848802.5000          DIVERSION SEGMEN =           0.0000
    TS         GW IRRIGA =           0.0000      TS         GW IRRIGA =           0.0000
    TION         SW IRRI =           0.0000      TION         SW IRRI =           0.0000
    GATION      SYSTEM L =           0.0000      GATION      SYSTEM L =           0.0000
    OSSES GW      SYSTEM =           0.1856      OSSES GW      SYSTEM =           0.0000

                TOTAL IN =      848802.6875                  TOTAL IN =           0.0000

          OUT:                                     OUT:
          ----                                     ----
               AG WELLS  =           0.0000                 AG WELLS  =           0.0000
        DIVERSION SEGMEN =           0.0000          DIVERSION SEGMEN =           0.0000
    TS         GW IRRIGA =           0.0000      TS         GW IRRIGA =           0.0000
    TION         SW IRRI =      848819.6875      TION         SW IRRI =           0.0000
    GATION      SYSTEM L =           0.0000      GATION      SYSTEM L =           0.0000
    OSSES GW      SYSTEM =           0.0000      OSSES GW      SYSTEM =           0.0000

               TOTAL OUT =      848819.6875                 TOTAL OUT =           0.0000

                IN - OUT =         -17.0000                  IN - OUT =           0.0000

     PERCENT DISCREPANCY =          -0.00         PERCENT DISCREPANCY =           0.00



1
  VOLUMETRIC BUDGET FOR ENTIRE MODEL AT END OF TIME STEP   30, STRESS PERIOD  17
  ------------------------------------------------------------------------------

     CUMULATIVE VOLUMES      L**3       RATES FOR THIS TIME STEP      L**3/T
     ------------------                 ------------------------

           IN:                                      IN:
           ---                                      ---
             STORAGE     =    24447600.0000               STORAGE     =           0.6849
       CONSTANT HEAD     =           0.0000         CONSTANT HEAD     =           0.0000
     HEAD DEP BOUNDS     =    12046700.0000       HEAD DEP BOUNDS     =           0.2856
      STREAM LEAKAGE     =   508767520.0000        STREAM LEAKAGE     =          12.4446
        UZF RECHARGE     =      674797.2500          UZF RECHARGE     =           0.0000
               GW ET     =           0.0000                 GW ET     =           0.0000
     SURFACE LEAKAGE     =           0.0000       SURFACE LEAKAGE     =           0.0000
           AG WELLS      =           0.0000             AG WELLS      =           0.0000

                TOTAL IN =   545936640.0000                  TOTAL IN =          13.4151

          OUT:                                     OUT:
          ----                                     ----
             STORAGE     =    78467952.0000               STORAGE     =           1.8060
       CONSTANT HEAD     =           0.0000         CONSTANT HEAD     =           0.0000
     HEAD DEP BOUNDS     =    12333502.0000       HEAD DEP BOUNDS     =           0.2958
      STREAM LEAKAGE     =   447990528.0000        STREAM LEAKAGE     =          11.1419
        UZF RECHARGE     =           0.0000          UZF RECHARGE     =           0.0000
               GW ET     =     7156098.0000                 GW ET     =           0.1717
     SURFACE LEAKAGE     =           0.0000       SURFACE LEAKAGE     =           0.0000
           AG WELLS      =           0.0000             AG WELLS      =           0.0000

               TOTAL OUT =   545948096.0000                 TOTAL OUT =          13.4154

                IN - OUT =      -11456.0000                  IN - OUT =      -3.1662E-04

     PERCENT DISCREPANCY =          -0.00         PERCENT DISCREPANCY =          -0.00






         TIME SUMMARY AT END OF TIME STEP   30 IN STRESS PERIOD   17
                    SECONDS     MINUTES      HOURS       DAYS        YEARS
                    -----------------------------------------------------------
   TIME STEP LENGTH  87667.      1461.1      24.352      1.0147     2.77799E-03
 STRESS PERIOD TIME 2.63000E+06  43833.      730.56      30.440     8.33397E-02
         TOTAL TIME 4.21664E+07 7.02774E+05  11713.      488.04      1.3362    
1
1
                            STRESS PERIOD NO.   18, LENGTH =   2630000.    
                            -----------------------------------------------

                              NUMBER OF TIME STEPS =    30

                               MULTIPLIER FOR DELT =     1.000

                            INITIAL TIME STEP SIZE =   87666.66    

 REUSING NON-PARAMETER GHB CELLS FROM LAST STRESS PERIOD

      2 GHB CELLS

 REUSING STREAM SEGMENT DATA FROM LAST STRESS PERIOD



            AREAL INFILTRATION RATE
 READING ON UNIT   19 WITH FORMAT: (10F4.0)            

            1           2           3           4           5           6           7           8           9          10
 ........................................................................................................................
   1   1.2000E-09   0.000       0.000       0.000       0.000       0.000       0.000       0.000       0.000       0.000    
   2   2.1000E-09  2.0000E-09  8.0000E-10  8.5000E-09   0.000       0.000       0.000       0.000       0.000       0.000    
   3   5.0000E-10  1.1000E-09  8.8000E-09  5.5000E-09   0.000       0.000       0.000       0.000       0.000       0.000    
   4   8.5000E-09  1.1000E-09  1.1000E-09  1.1000E-09  2.0000E-09   0.000       0.000       0.000       0.000       0.000    
   5   8.5000E-09  1.1000E-09  1.1000E-09  1.1000E-09  1.1000E-09   0.000       0.000       0.000       0.000       0.000    
   6   8.5000E-09  5.2000E-09  2.1000E-09  1.1000E-09  1.5000E-09   0.000       0.000       0.000       0.000       0.000    
   7   8.5000E-09  5.2000E-09  2.1000E-09  1.2000E-09  2.0000E-09   0.000       0.000       0.000       0.000       0.000    
   8   5.0000E-10  5.2000E-09  2.1000E-09  1.2000E-09  5.0000E-09   0.000       0.000       0.000       0.000       0.000    
   9   5.0000E-10  5.2000E-09  2.1000E-09  1.2000E-09  5.0000E-09   0.000       0.000       0.000       0.000       0.000    
  10   5.0000E-10  5.2000E-09  2.1000E-09  1.2000E-09  5.8000E-09   0.000       0.000       0.000       0.000       0.000    
  11   1.0000E-10  1.1000E-09  1.1000E-09  1.2000E-09  5.0000E-09   0.000       0.000       0.000       0.000       0.000    
  12   1.1000E-09  1.1000E-09  1.1000E-09  1.1000E-09  2.0000E-09   0.000       0.000       0.000       0.000       0.000    
  13   1.1000E-09  2.2000E-09  2.2000E-09  2.1000E-09  1.0000E-09   0.000       0.000       0.000       0.000       0.000    
  14   2.0000E-10  5.5000E-09  5.5000E-09  5.2000E-09  1.0000E-09   0.000       0.000       0.000       0.000       0.000    
  15    0.000      8.8000E-09  8.8000E-09   0.000       0.000       0.000       0.000       0.000       0.000       0.000    

                  ET RATE =  5.000000E-08

 USING ET EXTINCTION DEPTH FROM PREVIOUS STRESS PERIOD. CURRENT PERIOD IS:      18

 USING EXTINCTION WATER CONTENT FROM PREVIOUS STRESS PERIOD. CURRENT PERIOD IS:      18

 USING AIR ENTRY PRESSURE FROM PREVIOUS STRESS PERIOD. CURRENT PERIOD IS:      18

 USING ROOT PRESSURE HEAD FROM PREVIOUS STRESS PERIOD. CURRENT PERIOD IS:      18

 USING ROOT ACTIVITY FROM PREVIOUS STRESS PERIOD. CURRENT PERIOD IS:      18

 PROCESSING AG STRESS PERIOD DATA

 READING AG STRESS PERIOD DATA

 READING IRRIGATION SEGMENT

 READING IRRIGATION WELL

 READING SUPPLEMENTAL WELL

 END PROCESSING AG STRESS PERIOD DATA OPTIONS
 
 SOLVING FOR HEAD 
                                                   Max.-Head-Change                         Max.-Flux-Residual
  Residual-Control   Outer-Iter.   Inner-Iter.     Column Row Layer    Maximum-Head-Change  Column Row Layer    Maximum-Flux-Residual          L2-NORM 
          0                 1           2             3   13     1      -0.4649369504E-02       4   13    1        -0.2750965242E+00      0.5535607258E+00
          0                 2           2             4   13     1       0.4439854514E-03       4   13    1         0.2727751710E-01      0.5440660634E-01
          0                 3           1             4   13     1      -0.2989678696E-04       4   13    1        -0.1888535954E-02      0.3721507755E-02

    ------------------------------------------------
       NWT REQUIRED            3 OUTER ITERATIONS 
       AND A TOTAL OF          5 INNER ITERATIONS.
    ------------------------------------------------

 NO OUTPUT CONTROL FOR STRESS PERIOD   18   TIME STEP    1
 
 SOLVING FOR HEAD 
                                                   Max.-Head-Change                         Max.-Flux-Residual
  Residual-Control   Outer-Iter.   Inner-Iter.     Column Row Layer    Maximum-Head-Change  Column Row Layer    Maximum-Flux-Residual          L2-NORM 
          0                 1           2             3   13     1      -0.4092175173E-02       3   13    1        -0.2418778830E+00      0.5139836580E+00
          0                 2           2             3   13     1       0.3889356636E-03       4   13    1         0.2372399703E-01      0.5057905985E-01
          0                 3           1             4   13     1      -0.2598801854E-04       4   13    1        -0.1641064564E-02      0.3464315098E-02

    ------------------------------------------------
       NWT REQUIRED            3 OUTER ITERATIONS 
       AND A TOTAL OF          5 INNER ITERATIONS.
    ------------------------------------------------

 NO OUTPUT CONTROL FOR STRESS PERIOD   18   TIME STEP    2
 
 SOLVING FOR HEAD 
                                                   Max.-Head-Change                         Max.-Flux-Residual
  Residual-Control   Outer-Iter.   Inner-Iter.     Column Row Layer    Maximum-Head-Change  Column Row Layer    Maximum-Flux-Residual          L2-NORM 
          0                 1           2             3   13     1      -0.3602470887E-02       3   13    1        -0.2128847695E+00      0.4807598509E+00
          0                 2           2             3   13     1       0.3424457508E-03       3   13    1         0.2080528332E-01      0.4737222098E-01
          0                 3           1             4   13     1      -0.2262102600E-04       4   13    1        -0.1427953519E-02      0.3251041770E-02

    ------------------------------------------------
       NWT REQUIRED            3 OUTER ITERATIONS 
       AND A TOTAL OF          5 INNER ITERATIONS.
    ------------------------------------------------

 NO OUTPUT CONTROL FOR STRESS PERIOD   18   TIME STEP    3
 
 SOLVING FOR HEAD 
                                                   Max.-Head-Change                         Max.-Flux-Residual
  Residual-Control   Outer-Iter.   Inner-Iter.     Column Row Layer    Maximum-Head-Change  Column Row Layer    Maximum-Flux-Residual          L2-NORM 
          0                 1           2             3   13     1      -0.3172105197E-02       3   13    1        -0.1874078340E+00      0.4529778981E+00
          0                 2           2             1    1     1      -0.3039290555E-03       3   13    1         0.1831800954E-01      0.4469618789E-01
          0                 3           1             1    1     1       0.2069644025E-04       4   13    1        -0.1242751676E-02      0.3073871528E-02

    ------------------------------------------------
       NWT REQUIRED            3 OUTER ITERATIONS 
       AND A TOTAL OF          5 INNER ITERATIONS.
    ------------------------------------------------

 NO OUTPUT CONTROL FOR STRESS PERIOD   18   TIME STEP    4
 
 SOLVING FOR HEAD 
                                                   Max.-Head-Change                         Max.-Flux-Residual
  Residual-Control   Outer-Iter.   Inner-Iter.     Column Row Layer    Maximum-Head-Change  Column Row Layer    Maximum-Flux-Residual          L2-NORM 
          0                 1           2             1    1     1       0.3122029849E-02       3   13    1        -0.1650146360E+00      0.4298239977E+00
          0                 2           2             1    1     1      -0.3036885910E-03       1    1    1        -0.1620302857E-01      0.4247084373E-01
          0                 3           1             1    1     1       0.2068006506E-04       1    1    1         0.1134212353E-02      0.2925695882E-02

    ------------------------------------------------
       NWT REQUIRED            3 OUTER ITERATIONS 
       AND A TOTAL OF          5 INNER ITERATIONS.
    ------------------------------------------------

 NO OUTPUT CONTROL FOR STRESS PERIOD   18   TIME STEP    5
 
 SOLVING FOR HEAD 
                                                   Max.-Head-Change                         Max.-Flux-Residual
  Residual-Control   Outer-Iter.   Inner-Iter.     Column Row Layer    Maximum-Head-Change  Column Row Layer    Maximum-Flux-Residual          L2-NORM 
          0                 1           2             1    1     1       0.3119565899E-02       1    1    1         0.1619019678E+00      0.4105821042E+00
          0                 2           2             1    1     1      -0.3034489150E-03       1    1    1        -0.1619021136E-01      0.4062494180E-01
          0                 3           1             1    1     1       0.2066374408E-04       1    1    1         0.1133315146E-02      0.2803874701E-02

    ------------------------------------------------
       NWT REQUIRED            3 OUTER ITERATIONS 
       AND A TOTAL OF          5 INNER ITERATIONS.
    ------------------------------------------------

 NO OUTPUT CONTROL FOR STRESS PERIOD   18   TIME STEP    6
 
 SOLVING FOR HEAD 
                                                   Max.-Head-Change                         Max.-Flux-Residual
  Residual-Control   Outer-Iter.   Inner-Iter.     Column Row Layer    Maximum-Head-Change  Column Row Layer    Maximum-Flux-Residual          L2-NORM 
          0                 1           2             1    1     1       0.3117132607E-02       1    1    1         0.1617753887E+00      0.3946301999E+00
          0                 2           2             1    1     1      -0.3032122215E-03       1    1    1        -0.1617755340E-01      0.3909818668E-01
          0                 3           1             1    1     1       0.2064762615E-04       1    1    1         0.1132429101E-02      0.2702718132E-02

    ------------------------------------------------
       NWT REQUIRED            3 OUTER ITERATIONS 
       AND A TOTAL OF          5 INNER ITERATIONS.
    ------------------------------------------------

 NO OUTPUT CONTROL FOR STRESS PERIOD   18   TIME STEP    7
 
 SOLVING FOR HEAD 
                                                   Max.-Head-Change                         Max.-Flux-Residual
  Residual-Control   Outer-Iter.   Inner-Iter.     Column Row Layer    Maximum-Head-Change  Column Row Layer    Maximum-Flux-Residual          L2-NORM 
          0                 1           2             1    1     1       0.3114684707E-02       1    1    1         0.1616480541E+00      0.3814120619E+00
          0                 2           2             1    1     1      -0.3029741066E-03       1    1    1        -0.1616481988E-01      0.3783461433E-01
          0                 3           1             1    1     1       0.2063141167E-04       1    1    1         0.1131537756E-02      0.2620175212E-02

    ------------------------------------------------
       NWT REQUIRED            3 OUTER ITERATIONS 
       AND A TOTAL OF          5 INNER ITERATIONS.
    ------------------------------------------------

 NO OUTPUT CONTROL FOR STRESS PERIOD   18   TIME STEP    8
 
 SOLVING FOR HEAD 
                                                   Max.-Head-Change                         Max.-Flux-Residual
  Residual-Control   Outer-Iter.   Inner-Iter.     Column Row Layer    Maximum-Head-Change  Column Row Layer    Maximum-Flux-Residual          L2-NORM 
          0                 1           2             1    1     1       0.3112244823E-02       1    1    1         0.1615211346E+00      0.3704636887E+00
          0                 2           2             1    1     1      -0.3027367716E-03       1    1    1        -0.1615212788E-01      0.3679008871E-01
          0                 3           1             1    1     1       0.2061524996E-04       1    1    1         0.1130649309E-02      0.2551469104E-02

    ------------------------------------------------
       NWT REQUIRED            3 OUTER ITERATIONS 
       AND A TOTAL OF          5 INNER ITERATIONS.
    ------------------------------------------------

 NO OUTPUT CONTROL FOR STRESS PERIOD   18   TIME STEP    9
 
 SOLVING FOR HEAD 
                                                   Max.-Head-Change                         Max.-Flux-Residual
  Residual-Control   Outer-Iter.   Inner-Iter.     Column Row Layer    Maximum-Head-Change  Column Row Layer    Maximum-Flux-Residual          L2-NORM 
          0                 1           2             1    1     1       0.3109812906E-02       1    1    1         0.1613946307E+00      0.3613887727E+00
          0                 2           2             1    1     1      -0.3025002118E-03       1    1    1        -0.1613947745E-01      0.3592532145E-01
          0                 3           1             1    1     1       0.2059914079E-04       1    1    1         0.1129763777E-02      0.2438730419E-02

    ------------------------------------------------
       NWT REQUIRED            3 OUTER ITERATIONS 
       AND A TOTAL OF          5 INNER ITERATIONS.
    ------------------------------------------------

 NO OUTPUT CONTROL FOR STRESS PERIOD   18   TIME STEP   10
 
 SOLVING FOR HEAD 
                                                   Max.-Head-Change                         Max.-Flux-Residual
  Residual-Control   Outer-Iter.   Inner-Iter.     Column Row Layer    Maximum-Head-Change  Column Row Layer    Maximum-Flux-Residual          L2-NORM 
          0                 1           2             1    1     1       0.3107388939E-02       1    1    1         0.1612685400E+00      0.3538727305E+00
          0                 2           2             1    1     1      -0.3022644251E-03       1    1    1        -0.1612686831E-01      0.3520860363E-01
          0                 3           1             1    1     1       0.2058308488E-04       1    1    1         0.1128881144E-02      0.2448260206E-02

    ------------------------------------------------
       NWT REQUIRED            3 OUTER ITERATIONS 
       AND A TOTAL OF          5 INNER ITERATIONS.
    ------------------------------------------------

 NO OUTPUT CONTROL FOR STRESS PERIOD   18   TIME STEP   11
 
 SOLVING FOR HEAD 
                                                   Max.-Head-Change                         Max.-Flux-Residual
  Residual-Control   Outer-Iter.   Inner-Iter.     Column Row Layer    Maximum-Head-Change  Column Row Layer    Maximum-Flux-Residual          L2-NORM 
          0                 1           2             1    1     1       0.3104995459E-02       1    1    1         0.1611440345E+00      0.3476012428E+00
          0                 2           2             1    1     1      -0.3020316035E-03       1    1    1        -0.1611441771E-01      0.3461091387E-01
          0                 3           1             1    1     1       0.2056723014E-04       1    1    1         0.1128009590E-02      0.2408884139E-02

    ------------------------------------------------
       NWT REQUIRED            3 OUTER ITERATIONS 
       AND A TOTAL OF          5 INNER ITERATIONS.
    ------------------------------------------------

 NO OUTPUT CONTROL FOR STRESS PERIOD   18   TIME STEP   12
 
 SOLVING FOR HEAD 
                                                   Max.-Head-Change                         Max.-Flux-Residual
  Residual-Control   Outer-Iter.   Inner-Iter.     Column Row Layer    Maximum-Head-Change  Column Row Layer    Maximum-Flux-Residual          L2-NORM 
          0                 1           2             1    1     1       0.3102587214E-02       1    1    1         0.1610187636E+00      0.3423759551E+00
          0                 2           2             1    1     1      -0.3017973458E-03       1    1    1        -0.1610189054E-01      0.3411343873E-01
          0                 3           1             1    1     1       0.2055127836E-04       1    1    1         0.1127132687E-02      0.2376647131E-02

    ------------------------------------------------
       NWT REQUIRED            3 OUTER ITERATIONS 
       AND A TOTAL OF          5 INNER ITERATIONS.
    ------------------------------------------------

 NO OUTPUT CONTROL FOR STRESS PERIOD   18   TIME STEP   13
 
 SOLVING FOR HEAD 
                                                   Max.-Head-Change                         Max.-Flux-Residual
  Residual-Control   Outer-Iter.   Inner-Iter.     Column Row Layer    Maximum-Head-Change  Column Row Layer    Maximum-Flux-Residual          L2-NORM 
          0                 1           2             1    1     1       0.3100186806E-02       1    1    1         0.1608939002E+00      0.3379862554E+00
          0                 2           2             1    1     1      -0.3015638508E-03       1    1    1        -0.1608940416E-01      0.3369497128E-01
          0                 3           1             1    1     1       0.2053537794E-04       1    1    1         0.1126258637E-02      0.2349115594E-02

    ------------------------------------------------
       NWT REQUIRED            3 OUTER ITERATIONS 
       AND A TOTAL OF          5 INNER ITERATIONS.
    ------------------------------------------------

 NO OUTPUT CONTROL FOR STRESS PERIOD   18   TIME STEP   14
 
 SOLVING FOR HEAD 
                                                   Max.-Head-Change                         Max.-Flux-Residual
  Residual-Control   Outer-Iter.   Inner-Iter.     Column Row Layer    Maximum-Head-Change  Column Row Layer    Maximum-Flux-Residual          L2-NORM 
          0                 1           2             1    1     1       0.3097794220E-02       1    1    1         0.1607694432E+00      0.3342969156E+00
          0                 2           2             1    1     1      -0.3013311171E-03       1    1    1        -0.1607695842E-01      0.3334328925E-01
          0                 3           1             1    1     1       0.2051952982E-04       1    1    1         0.1125387442E-02      0.2325923887E-02

    ------------------------------------------------
       NWT REQUIRED            3 OUTER ITERATIONS 
       AND A TOTAL OF          5 INNER ITERATIONS.
    ------------------------------------------------

 NO OUTPUT CONTROL FOR STRESS PERIOD   18   TIME STEP   15
 
 SOLVING FOR HEAD 
                                                   Max.-Head-Change                         Max.-Flux-Residual
  Residual-Control   Outer-Iter.   Inner-Iter.     Column Row Layer    Maximum-Head-Change  Column Row Layer    Maximum-Flux-Residual          L2-NORM 
          0                 1           2             1    1     1       0.3095409405E-02       1    1    1         0.1606453916E+00      0.3311689479E+00
          0                 2           2             1    1     1      -0.3010991385E-03       1    1    1        -0.1606455320E-01      0.3304465107E-01
          0                 3           1             1    1     1       0.2050373306E-04       1    1    1         0.1124519074E-02      0.2306025220E-02

    ------------------------------------------------
       NWT REQUIRED            3 OUTER ITERATIONS 
       AND A TOTAL OF          5 INNER ITERATIONS.
    ------------------------------------------------

 NO OUTPUT CONTROL FOR STRESS PERIOD   18   TIME STEP   16
 
 SOLVING FOR HEAD 
                                                   Max.-Head-Change                         Max.-Flux-Residual
  Residual-Control   Outer-Iter.   Inner-Iter.     Column Row Layer    Maximum-Head-Change  Column Row Layer    Maximum-Flux-Residual          L2-NORM 
          0                 1           2             1    1     1       0.3093032348E-02       1    1    1         0.1605217431E+00      0.3285143631E+00
          0                 2           2             1    1     1      -0.3008679151E-03       1    1    1        -0.1605218831E-01      0.3279138787E-01
          0                 3           1             1    1     1       0.2048798743E-04       1    1    1         0.1123653523E-02      0.2289506514E-02

    ------------------------------------------------
       NWT REQUIRED            3 OUTER ITERATIONS 
       AND A TOTAL OF          5 INNER ITERATIONS.
    ------------------------------------------------

 NO OUTPUT CONTROL FOR STRESS PERIOD   18   TIME STEP   17
 
 SOLVING FOR HEAD 
                                                   Max.-Head-Change                         Max.-Flux-Residual
  Residual-Control   Outer-Iter.   Inner-Iter.     Column Row Layer    Maximum-Head-Change  Column Row Layer    Maximum-Flux-Residual          L2-NORM 
          0                 1           2             1    1     1       0.3090663000E-02       1    1    1         0.1603984967E+00      0.3262341298E+00
          0                 2           2             1    1     1      -0.3006374413E-03       1    1    1        -0.1603986361E-01      0.3257325703E-01
          0                 3           1             1    1     1       0.2047229339E-04       1    1    1         0.1122790817E-02      0.2275369194E-02

    ------------------------------------------------
       NWT REQUIRED            3 OUTER ITERATIONS 
       AND A TOTAL OF          5 INNER ITERATIONS.
    ------------------------------------------------

 NO OUTPUT CONTROL FOR STRESS PERIOD   18   TIME STEP   18
 
 SOLVING FOR HEAD 
                                                   Max.-Head-Change                         Max.-Flux-Residual
  Residual-Control   Outer-Iter.   Inner-Iter.     Column Row Layer    Maximum-Head-Change  Column Row Layer    Maximum-Flux-Residual          L2-NORM 
          0                 1           2             1    1     1       0.3088301345E-02       1    1    1         0.1602756501E+00      0.3242816373E+00
          0                 2           2             1    1     1      -0.3004077158E-03       1    1    1        -0.1602757890E-01      0.3238676286E-01
          0                 3           1             1    1     1       0.2045664976E-04       1    1    1         0.1121930877E-02      0.2263459927E-02

    ------------------------------------------------
       NWT REQUIRED            3 OUTER ITERATIONS 
       AND A TOTAL OF          5 INNER ITERATIONS.
    ------------------------------------------------

 NO OUTPUT CONTROL FOR STRESS PERIOD   18   TIME STEP   19
 
 SOLVING FOR HEAD 
                                                   Max.-Head-Change                         Max.-Flux-Residual
  Residual-Control   Outer-Iter.   Inner-Iter.     Column Row Layer    Maximum-Head-Change  Column Row Layer    Maximum-Flux-Residual          L2-NORM 
          0                 1           2             1    1     1       0.3085947354E-02       1    1    1         0.1601532024E+00      0.3225862023E+00
          0                 2           2             1    1     1      -0.3001787358E-03       1    1    1        -0.1601533407E-01      0.3222402620E-01
          0                 3           1             1    1     1       0.2044105725E-04       1    1    1         0.1121073742E-02      0.2252438818E-02

    ------------------------------------------------
       NWT REQUIRED            3 OUTER ITERATIONS 
       AND A TOTAL OF          5 INNER ITERATIONS.
    ------------------------------------------------

 NO OUTPUT CONTROL FOR STRESS PERIOD   18   TIME STEP   20
 
 SOLVING FOR HEAD 
                                                   Max.-Head-Change                         Max.-Flux-Residual
  Residual-Control   Outer-Iter.   Inner-Iter.     Column Row Layer    Maximum-Head-Change  Column Row Layer    Maximum-Flux-Residual          L2-NORM 
          0                 1           2             1    1     1       0.3083600978E-02       1    1    1         0.1600311520E+00      0.3211080180E+00
          0                 2           2             1    1     1      -0.2999504966E-03       1    1    1        -0.1600312898E-01      0.3208160905E-01
          0                 3           1             1    1     1       0.2042551468E-04       1    1    1         0.1120219378E-02      0.2242960210E-02

    ------------------------------------------------
       NWT REQUIRED            3 OUTER ITERATIONS 
       AND A TOTAL OF          5 INNER ITERATIONS.
    ------------------------------------------------

 NO OUTPUT CONTROL FOR STRESS PERIOD   18   TIME STEP   21
 
 SOLVING FOR HEAD 
                                                   Max.-Head-Change                         Max.-Flux-Residual
  Residual-Control   Outer-Iter.   Inner-Iter.     Column Row Layer    Maximum-Head-Change  Column Row Layer    Maximum-Flux-Residual          L2-NORM 
          0                 1           2             1    1     1       0.3081262201E-02       1    1    1         0.1599094964E+00      0.3198067434E+00
          0                 2           2             1    1     1      -0.2997229968E-03       1    1    1        -0.1599096336E-01      0.3195608827E-01
          0                 3           1             1    1     1       0.2041002299E-04       1    1    1         0.1119367796E-02      0.2234557244E-02

    ------------------------------------------------
       NWT REQUIRED            3 OUTER ITERATIONS 
       AND A TOTAL OF          5 INNER ITERATIONS.
    ------------------------------------------------

 NO OUTPUT CONTROL FOR STRESS PERIOD   18   TIME STEP   22
 
 SOLVING FOR HEAD 
                                                   Max.-Head-Change                         Max.-Flux-Residual
  Residual-Control   Outer-Iter.   Inner-Iter.     Column Row Layer    Maximum-Head-Change  Column Row Layer    Maximum-Flux-Residual          L2-NORM 
          0                 1           2             1    1     1       0.3078930995E-02       1    1    1         0.1597882349E+00      0.3186602127E+00
          0                 2           2             1    1     1      -0.2994962334E-03       1    1    1        -0.1597883718E-01      0.3184625108E-01
          0                 3           1             1    1     1       0.2039458124E-04       1    1    1         0.1118518955E-02      0.2227457479E-02

    ------------------------------------------------
       NWT REQUIRED            3 OUTER ITERATIONS 
       AND A TOTAL OF          5 INNER ITERATIONS.
    ------------------------------------------------

 NO OUTPUT CONTROL FOR STRESS PERIOD   18   TIME STEP   23
 
 SOLVING FOR HEAD 
                                                   Max.-Head-Change                         Max.-Flux-Residual
  Residual-Control   Outer-Iter.   Inner-Iter.     Column Row Layer    Maximum-Head-Change  Column Row Layer    Maximum-Flux-Residual          L2-NORM 
          0                 1           2             1    1     1       0.3076607310E-02       1    1    1         0.1596673659E+00      0.3176407000E+00
          0                 2           2             1    1     1      -0.2992702013E-03       1    1    1        -0.1596675022E-01      0.3174687858E-01
          0                 3           1             1    1     1       0.2037918943E-04       1    1    1         0.1117672872E-02      0.2220768593E-02

    ------------------------------------------------
       NWT REQUIRED            3 OUTER ITERATIONS 
       AND A TOTAL OF          5 INNER ITERATIONS.
    ------------------------------------------------

 NO OUTPUT CONTROL FOR STRESS PERIOD   18   TIME STEP   24
 
 SOLVING FOR HEAD 
                                                   Max.-Head-Change                         Max.-Flux-Residual
  Residual-Control   Outer-Iter.   Inner-Iter.     Column Row Layer    Maximum-Head-Change  Column Row Layer    Maximum-Flux-Residual          L2-NORM 
          0                 1           2             1    1     1       0.3074291133E-02       1    1    1         0.1595468869E+00      0.3167266440E+00
          0                 2           2             1    1     1      -0.2990448993E-03       1    1    1        -0.1595470226E-01      0.3165819245E-01
          0                 3           1             1    1     1       0.2036384662E-04       1    1    1         0.1116829504E-02      0.2214672311E-02

    ------------------------------------------------
       NWT REQUIRED            3 OUTER ITERATIONS 
       AND A TOTAL OF          5 INNER ITERATIONS.
    ------------------------------------------------

 NO OUTPUT CONTROL FOR STRESS PERIOD   18   TIME STEP   25
 
 SOLVING FOR HEAD 
                                                   Max.-Head-Change                         Max.-Flux-Residual
  Residual-Control   Outer-Iter.   Inner-Iter.     Column Row Layer    Maximum-Head-Change  Column Row Layer    Maximum-Flux-Residual          L2-NORM 
          0                 1           2             1    1     1       0.3071982434E-02       1    1    1         0.1594267971E+00      0.3159058212E+00
          0                 2           2             1    1     1      -0.2988203253E-03       1    1    1        -0.1594269324E-01      0.3157839967E-01
          0                 3           1             1    1     1       0.2034855421E-04       1    1    1         0.1115988876E-02      0.2209283973E-02

    ------------------------------------------------
       NWT REQUIRED            3 OUTER ITERATIONS 
       AND A TOTAL OF          5 INNER ITERATIONS.
    ------------------------------------------------

 NO OUTPUT CONTROL FOR STRESS PERIOD   18   TIME STEP   26
 
 SOLVING FOR HEAD 
                                                   Max.-Head-Change                         Max.-Flux-Residual
  Residual-Control   Outer-Iter.   Inner-Iter.     Column Row Layer    Maximum-Head-Change  Column Row Layer    Maximum-Flux-Residual          L2-NORM 
          0                 1           2             1    1     1       0.3069681182E-02       1    1    1         0.1593070951E+00      0.3151628349E+00
          0                 2           2             1    1     1      -0.2985964758E-03       1    1    1        -0.1593072300E-01      0.3150599539E-01
          0                 3           1             1    1     1       0.2033331103E-04       1    1    1         0.1115150960E-02      0.2204503052E-02

    ------------------------------------------------
       NWT REQUIRED            3 OUTER ITERATIONS 
       AND A TOTAL OF          5 INNER ITERATIONS.
    ------------------------------------------------

 NO OUTPUT CONTROL FOR STRESS PERIOD   18   TIME STEP   27
 
 SOLVING FOR HEAD 
                                                   Max.-Head-Change                         Max.-Flux-Residual
  Residual-Control   Outer-Iter.   Inner-Iter.     Column Row Layer    Maximum-Head-Change  Column Row Layer    Maximum-Flux-Residual          L2-NORM 
          0                 1           2             1    1     1       0.3067364714E-02       1    1    1         0.1591866045E+00      0.3144830882E+00
          0                 2           2             1    1     1      -0.2983711453E-03       1    1    1        -0.1591867387E-01      0.3143965112E-01
          0                 3           1             1    1     1       0.2031796679E-04       1    1    1         0.1114307521E-02      0.2200011976E-02

    ------------------------------------------------
       NWT REQUIRED            3 OUTER ITERATIONS 
       AND A TOTAL OF          5 INNER ITERATIONS.
    ------------------------------------------------

 NO OUTPUT CONTROL FOR STRESS PERIOD   18   TIME STEP   28
 
 SOLVING FOR HEAD 
                                                   Max.-Head-Change                         Max.-Flux-Residual
  Residual-Control   Outer-Iter.   Inner-Iter.     Column Row Layer    Maximum-Head-Change  Column Row Layer    Maximum-Flux-Residual          L2-NORM 
          0                 1           2             1    1     1       0.3065078289E-02       1    1    1         0.1590676743E+00      0.3138619756E+00
          0                 2           2             1    1     1      -0.2981487380E-03       1    1    1        -0.1590678082E-01      0.3137987169E-01
          0                 3           1             1    1     1       0.2030282183E-04       1    1    1         0.1113475005E-02      0.2197201612E-02

    ------------------------------------------------
       NWT REQUIRED            3 OUTER ITERATIONS 
       AND A TOTAL OF          5 INNER ITERATIONS.
    ------------------------------------------------

 NO OUTPUT CONTROL FOR STRESS PERIOD   18   TIME STEP   29
 
 SOLVING FOR HEAD 
                                                   Max.-Head-Change                         Max.-Flux-Residual
  Residual-Control   Outer-Iter.   Inner-Iter.     Column Row Layer    Maximum-Head-Change  Column Row Layer    Maximum-Flux-Residual          L2-NORM 
          0                 1           2             1    1     1       0.3062799220E-02       1    1    1         0.1589491271E+00      0.3132929280E+00
          0                 2           2             1    1     1      -0.2979270460E-03       1    1    1        -0.1589492604E-01      0.3132310784E-01
          0                 3           1             1    1     1       0.2028772539E-04       1    1    1         0.1112645180E-02      0.2192020273E-02

    ------------------------------------------------
       NWT REQUIRED            3 OUTER ITERATIONS 
       AND A TOTAL OF          5 INNER ITERATIONS.
    ------------------------------------------------

 NO OUTPUT CONTROL FOR STRESS PERIOD   18   TIME STEP   30



 STREAM LISTING     PERIOD     18   STEP       30

 LAYER ROW COL. STREAM  RCH.  FLOW INTO     FLOW TO   FLOW OUT OF   OVRLND.     DIRECT     STREAM       STREAM     STREAM     STREAM   STREAMBED  STREAMBED
                SEG.NO.  NO.  STRM. RCH.    AQUIFER    STRM. RCH.    RUNOFF     PRECIP       ET          HEAD       DEPTH      WIDTH   CONDCTNC.   GRADIENT

   1    1    1     1     1    4.7251E+01  3.2762E-01   4.6923E+01  0.000E+00  0.000E+00  0.000E+00  1.09443E+03  1.381E+00  1.662E+01  7.477E-02  1.460E+00
   1    2    2     1     2    4.6923E+01  5.0760E-01   4.6416E+01  0.000E+00  0.000E+00  0.000E+00  1.08944E+03  1.379E+00  1.656E+01  1.159E-01  1.460E+00
   1    3    3     1     3    4.6416E+01  4.3310E-01   4.5982E+01  0.000E+00  0.000E+00  0.000E+00  1.08379E+03  1.376E+00  1.650E+01  9.898E-02  1.459E+00
   1    3    4     1     4    4.5982E+01  3.9899E-01   4.5583E+01  0.000E+00  0.000E+00  0.000E+00  1.07878E+03  1.373E+00  1.644E+01  9.124E-02  1.458E+00
   1    4    5     2     1    4.3583E+01  3.6514E-01   4.3218E+01  0.000E+00  0.000E+00  0.000E+00  1.07362E+03  1.681E+00  1.200E+01  7.800E-02  1.560E+00
   1    5    6     2     2    4.3218E+01  2.8043E-01   4.2938E+01  0.000E+00  0.000E+00  0.000E+00  1.06818E+03  1.674E+00  1.200E+01  6.000E-02  1.558E+00
   1    6    6     2     3    4.2938E+01  2.8003E-01   4.2658E+01  0.000E+00  0.000E+00  0.000E+00  1.06346E+03  1.667E+00  1.200E+01  6.000E-02  1.556E+00
   1    7    6     2     4    4.2658E+01  2.7964E-01   4.2378E+01  0.000E+00  0.000E+00  0.000E+00  1.05874E+03  1.661E+00  1.200E+01  6.000E-02  1.554E+00
   1    8    6     2     5    4.2378E+01  2.7925E-01   4.2099E+01  0.000E+00  0.000E+00  0.000E+00  1.05401E+03  1.654E+00  1.200E+01  6.000E-02  1.551E+00
   1    3    5     3     1    2.0000E+00  2.8252E-01   1.7175E+00  0.000E+00  0.000E+00  0.000E+00  1.07555E+03  1.909E+00  9.636E+00  7.227E-02  1.955E+00
   1    3    6     3     2    1.7175E+00  2.4905E-01   1.4684E+00  0.000E+00  0.000E+00  0.000E+00  1.07264E+03  1.727E+00  8.909E+00  6.682E-02  1.864E+00
   1    3    7     3     3    1.4684E+00  1.9718E-01   1.2712E+00  0.000E+00  0.000E+00  0.000E+00  1.06987E+03  1.555E+00  8.218E+00  5.547E-02  1.777E+00
   1    4    8     3     4    1.2712E+00  2.2567E-01   1.0456E+00  0.000E+00  0.000E+00  0.000E+00  1.06682E+03  1.364E+00  7.455E+00  6.709E-02  1.682E+00
   1    5    8     3     5    1.0456E+00  1.5790E-01   8.8768E-01  0.000E+00  0.000E+00  0.000E+00  1.06362E+03  1.164E+00  6.655E+00  4.991E-02  1.582E+00
   1    6    8     3     6    8.8768E-01  5.5980E-02   8.3170E-01  0.000E+00  0.000E+00  0.000E+00  1.06158E+03  1.036E+00  6.145E+00  1.844E-02  1.518E+00
   1    5   10     4     1    1.0000E+01  9.0919E-02   9.9091E+00  0.000E+00  0.000E+00  0.000E+00  1.07836E+03  6.368E-01  1.000E+01  2.500E-02  1.212E+00
   1    5    9     4     2    9.9091E+00  1.8158E-01   9.7275E+00  0.000E+00  0.000E+00  0.000E+00  1.07154E+03  6.315E-01  1.000E+01  5.000E-02  1.211E+00
   1    6    8     4     3    9.7275E+00  1.2689E-01   9.6006E+00  0.000E+00  0.000E+00  0.000E+00  1.06381E+03  6.256E-01  1.000E+01  3.500E-02  1.209E+00
   1    6    8     5     1    1.0432E+01  2.2686E-01   1.0205E+01  0.000E+00  0.000E+00  0.000E+00  1.05868E+03  6.790E-01  1.542E+01  6.166E-02  1.226E+00
   1    7    7     5     2    1.0205E+01  2.7894E-01   9.9265E+00  0.000E+00  0.000E+00  0.000E+00  1.05417E+03  6.732E-01  1.519E+01  7.594E-02  1.224E+00
   1    8    7     5     3    9.9265E+00  1.9221E-01   9.7343E+00  0.000E+00  0.000E+00  0.000E+00  1.04992E+03  6.676E-01  1.497E+01  5.241E-02  1.223E+00
   1    8    6     5     4    9.7343E+00  1.3577E-01   9.5985E+00  0.000E+00  0.000E+00  0.000E+00  1.04691E+03  6.637E-01  1.482E+01  3.706E-02  1.221E+00
   1    9    6     6     1    5.1697E+01  2.9310E-01   5.1404E+01  0.000E+00  0.000E+00  0.000E+00  1.04461E+03  1.885E+00  1.200E+01  6.000E-02  1.628E+00
   1   10    7     6     2    5.1404E+01  2.9271E-01   5.1112E+01  0.000E+00  0.000E+00  0.000E+00  1.04006E+03  1.879E+00  1.200E+01  6.000E-02  1.626E+00
   1   11    7     6     3    5.1112E+01  2.9233E-01   5.0819E+01  0.000E+00  0.000E+00  0.000E+00  1.03551E+03  1.872E+00  1.200E+01  6.000E-02  1.624E+00
   1   12    7     6     4    5.0819E+01  2.9194E-01   5.0527E+01  0.000E+00  0.000E+00  0.000E+00  1.03096E+03  1.866E+00  1.200E+01  6.000E-02  1.622E+00
   1   13    7     6     5    5.0527E+01  1.3775E-02   5.0514E+01  0.000E+00  0.000E+00  0.000E+00  1.02777E+03  1.862E+00  1.200E+01  2.400E-02  1.913E-01
   1   14    9     7     1    1.5000E+02  1.3338E+00   1.4867E+02  0.000E+00  0.000E+00  0.000E+00  1.03987E+03  2.288E+00  5.529E+01  5.593E-01  7.949E-01
   1   13    8     7     2    1.4867E+02  1.8083E+00   1.4686E+02  0.000E+00  0.000E+00  0.000E+00  1.03478E+03  2.279E+00  5.526E+01  6.148E-01  9.805E-01
   1   13    7     7     3    1.4686E+02  1.3921E+00   1.4547E+02  0.000E+00  0.000E+00  0.000E+00  1.02969E+03  2.271E+00  5.522E+01  5.585E-01  8.309E-01
   1   13    6     8     1    1.9598E+02  9.3974E-01   1.9504E+02  0.000E+00  0.000E+00  0.000E+00  1.02499E+03  3.111E+00  4.511E+01  4.597E-01  6.814E-01
   1   13    5     8     2    1.9504E+02  1.5200E-01   1.9489E+02  0.000E+00  0.000E+00  0.000E+00  1.01873E+03  3.108E+00  4.506E+01  4.592E-01  1.103E-01
   1   13    4     8     3    1.9489E+02 -2.5237E+00   1.9741E+02  0.000E+00  0.000E+00  0.000E+00  1.01249E+03  3.115E+00  4.517E+01  4.603E+00 -1.828E-01
   1   13    3     8     4    1.9741E+02 -3.6422E+00   2.0105E+02  0.000E+00  0.000E+00  0.000E+00  1.00626E+03  3.133E+00  4.543E+01  4.630E+00 -2.622E-01
   1   13    2     8     5    2.0105E+02 -2.5800E+00   2.0363E+02  0.000E+00  0.000E+00  0.000E+00  1.00003E+03  3.151E+00  4.570E+01  4.657E+00 -1.847E-01
   1   13    1     8     6    2.0363E+02 -1.9984E+00   2.0563E+02  0.000E+00  0.000E+00  0.000E+00  9.95040E+02  3.165E+00  4.589E+01  2.806E+00 -2.374E-01
   1    8    6     9     1    0.0000E+00  0.0000E+00   0.0000E+00  0.000E+00  0.000E+00  0.000E+00  1.07875E+03  0.000E+00  4.000E+00  0.000E+00  1.000E+00
   1    8    5     9     2    0.0000E+00  0.0000E+00   0.0000E+00  0.000E+00  0.000E+00  0.000E+00  1.07825E+03  0.000E+00  4.000E+00  0.000E+00  1.000E+00





UNSATURATED ZONE PACKAGE VOLUMETRIC BUDGET FOR  TIME STEP    30 STRESS PERIOD   18
  ------------------------------------------------------------------------------



     CUMULATIVE VOLUMES      L**3       RATES FOR THIS TIME STEP      L**3/T
     ------------------                 ------------------------

           IN:                                      IN:
           ---                                      ---
        INFILTRATION =   197981361.1482          INFILTRATION =           4.4075

          OUT:                                     OUT:
          ----                                     ----
              UZF ET =   142086987.3934                UZF ET =           4.4075
        UZF RECHARGE =      674797.3606          UZF RECHARGE =       0.0000E+00

            IN - OUT =    55219576.3942              IN - OUT =       0.0000E+00

          STORAGE:                                 STORAGE:
          --------                                 --------
      STORAGE CHANGE =    55220222.8207        STORAGE CHANGE =       1.4607E-14

 PERCENT DISCREPANCY IS DIFFERENCE BETWEEN IN-OUT MINUS CHANGE IN STORAGE
 DIVIDED BY THE AVERAGE OF IN AND OUT TIMES 100

 PERCENT DISCREPANCY =          -0.00     PERCENT DISCREPANCY =           0.00






1
  VOLUMETRIC BUDGET FOR ENTIRE MODEL AT END OF TIME STEP   30, STRESS PERIOD  18
  ------------------------------------------------------------------------------

     CUMULATIVE VOLUMES      L**3       RATES FOR THIS TIME STEP      L**3/T
     ------------------                 ------------------------

           IN:                                      IN:
           ---                                      ---
               AG WELLS  =           0.0000                 AG WELLS  =           0.0000
        DIVERSION SEGMEN =      848802.5000          DIVERSION SEGMEN =           0.0000
    TS         GW IRRIGA =           0.0000      TS         GW IRRIGA =           0.0000
    TION         SW IRRI =           0.0000      TION         SW IRRI =           0.0000
    GATION      SYSTEM L =           0.0000      GATION      SYSTEM L =           0.0000
    OSSES GW      SYSTEM =           0.1856      OSSES GW      SYSTEM =           0.0000

                TOTAL IN =      848802.6875                  TOTAL IN =           0.0000

          OUT:                                     OUT:
          ----                                     ----
               AG WELLS  =           0.0000                 AG WELLS  =           0.0000
        DIVERSION SEGMEN =           0.0000          DIVERSION SEGMEN =           0.0000
    TS         GW IRRIGA =           0.0000      TS         GW IRRIGA =           0.0000
    TION         SW IRRI =      848819.6875      TION         SW IRRI =           0.0000
    GATION      SYSTEM L =           0.0000      GATION      SYSTEM L =           0.0000
    OSSES GW      SYSTEM =           0.0000      OSSES GW      SYSTEM =           0.0000

               TOTAL OUT =      848819.6875                 TOTAL OUT =           0.0000

                IN - OUT =         -17.0000                  IN - OUT =           0.0000

     PERCENT DISCREPANCY =          -0.00         PERCENT DISCREPANCY =           0.00



1
  VOLUMETRIC BUDGET FOR ENTIRE MODEL AT END OF TIME STEP   30, STRESS PERIOD  18
  ------------------------------------------------------------------------------

     CUMULATIVE VOLUMES      L**3       RATES FOR THIS TIME STEP      L**3/T
     ------------------                 ------------------------

           IN:                                      IN:
           ---                                      ---
             STORAGE     =    25591938.0000               STORAGE     =           0.2155
       CONSTANT HEAD     =           0.0000         CONSTANT HEAD     =           0.0000
     HEAD DEP BOUNDS     =    12797900.0000       HEAD DEP BOUNDS     =           0.2856
      STREAM LEAKAGE     =   541286784.0000        STREAM LEAKAGE     =          12.3631
        UZF RECHARGE     =      674797.2500          UZF RECHARGE     =           0.0000
               GW ET     =           0.0000                 GW ET     =           0.0000
     SURFACE LEAKAGE     =           0.0000       SURFACE LEAKAGE     =           0.0000
           AG WELLS      =           0.0000             AG WELLS      =           0.0000

                TOTAL IN =   580351424.0000                  TOTAL IN =          12.8643

          OUT:                                     OUT:
          ----                                     ----
             STORAGE     =    82842776.0000               STORAGE     =           1.6270
       CONSTANT HEAD     =           0.0000         CONSTANT HEAD     =           0.0000
     HEAD DEP BOUNDS     =    13109438.0000       HEAD DEP BOUNDS     =           0.2946
      STREAM LEAKAGE     =   476639456.0000        STREAM LEAKAGE     =          10.7442
        UZF RECHARGE     =           0.0000          UZF RECHARGE     =           0.0000
               GW ET     =     7772148.0000                 GW ET     =           0.1989
     SURFACE LEAKAGE     =           0.0000       SURFACE LEAKAGE     =           0.0000
           AG WELLS      =           0.0000             AG WELLS      =           0.0000

               TOTAL OUT =   580363840.0000                 TOTAL OUT =          12.8647

                IN - OUT =      -12416.0000                  IN - OUT =      -4.0054E-04

     PERCENT DISCREPANCY =          -0.00         PERCENT DISCREPANCY =          -0.00






         TIME SUMMARY AT END OF TIME STEP   30 IN STRESS PERIOD   18
                    SECONDS     MINUTES      HOURS       DAYS        YEARS
                    -----------------------------------------------------------
   TIME STEP LENGTH  87667.      1461.1      24.352      1.0147     2.77799E-03
 STRESS PERIOD TIME 2.63000E+06  43833.      730.56      30.440     8.33397E-02
         TOTAL TIME 4.47965E+07 7.46608E+05  12443.      518.48      1.4195    
1
1
                            STRESS PERIOD NO.   19, LENGTH =   2630000.    
                            -----------------------------------------------

                              NUMBER OF TIME STEPS =    30

                               MULTIPLIER FOR DELT =     1.000

                            INITIAL TIME STEP SIZE =   87666.66    

 REUSING NON-PARAMETER GHB CELLS FROM LAST STRESS PERIOD

      2 GHB CELLS

 REUSING STREAM SEGMENT DATA FROM LAST STRESS PERIOD



            AREAL INFILTRATION RATE
 READING ON UNIT   19 WITH FORMAT: (10F4.0)            

            1           2           3           4           5           6           7           8           9          10
 ........................................................................................................................
   1   1.2000E-09   0.000       0.000       0.000       0.000       0.000       0.000       0.000       0.000       0.000    
   2   2.1000E-09  2.0000E-09  8.0000E-10  8.5000E-09   0.000       0.000       0.000       0.000       0.000       0.000    
   3   5.0000E-10  1.1000E-09  8.8000E-09  5.5000E-09   0.000       0.000       0.000       0.000       0.000       0.000    
   4   8.5000E-09  1.1000E-09  1.1000E-09  1.1000E-09  2.0000E-09   0.000       0.000       0.000       0.000       0.000    
   5   8.5000E-09  1.1000E-09  1.1000E-09  1.1000E-09  1.1000E-09   0.000       0.000       0.000       0.000       0.000    
   6   8.5000E-09  5.2000E-09  2.1000E-09  1.1000E-09  1.5000E-09   0.000       0.000       0.000       0.000       0.000    
   7   8.5000E-09  5.2000E-09  2.1000E-09  1.2000E-09  2.0000E-09   0.000       0.000       0.000       0.000       0.000    
   8   5.0000E-10  5.2000E-09  2.1000E-09  1.2000E-09  5.0000E-09   0.000       0.000       0.000       0.000       0.000    
   9   5.0000E-10  5.2000E-09  2.1000E-09  1.2000E-09  5.0000E-09   0.000       0.000       0.000       0.000       0.000    
  10   5.0000E-10  5.2000E-09  2.1000E-09  1.2000E-09  5.8000E-09   0.000       0.000       0.000       0.000       0.000    
  11   1.0000E-10  1.1000E-09  1.1000E-09  1.2000E-09  5.0000E-09   0.000       0.000       0.000       0.000       0.000    
  12   1.1000E-09  1.1000E-09  1.1000E-09  1.1000E-09  2.0000E-09   0.000       0.000       0.000       0.000       0.000    
  13   1.1000E-09  2.2000E-09  2.2000E-09  2.1000E-09  1.0000E-09   0.000       0.000       0.000       0.000       0.000    
  14   2.0000E-10  5.5000E-09  5.5000E-09  5.2000E-09  1.0000E-09   0.000       0.000       0.000       0.000       0.000    
  15    0.000      8.8000E-09  8.8000E-09   0.000       0.000       0.000       0.000       0.000       0.000       0.000    

                  ET RATE =  1.500000E-07

 USING ET EXTINCTION DEPTH FROM PREVIOUS STRESS PERIOD. CURRENT PERIOD IS:      19

 USING EXTINCTION WATER CONTENT FROM PREVIOUS STRESS PERIOD. CURRENT PERIOD IS:      19

 USING AIR ENTRY PRESSURE FROM PREVIOUS STRESS PERIOD. CURRENT PERIOD IS:      19

 USING ROOT PRESSURE HEAD FROM PREVIOUS STRESS PERIOD. CURRENT PERIOD IS:      19

 USING ROOT ACTIVITY FROM PREVIOUS STRESS PERIOD. CURRENT PERIOD IS:      19

 PROCESSING AG STRESS PERIOD DATA

 READING AG STRESS PERIOD DATA

 READING IRRIGATION SEGMENT

 READING IRRIGATION WELL

 READING SUPPLEMENTAL WELL

 END PROCESSING AG STRESS PERIOD DATA OPTIONS
 
 SOLVING FOR HEAD 
                                                   Max.-Head-Change                         Max.-Flux-Residual
  Residual-Control   Outer-Iter.   Inner-Iter.     Column Row Layer    Maximum-Head-Change  Column Row Layer    Maximum-Flux-Residual          L2-NORM 
          0                 1           2             3   13     1      -0.4696612148E-02       3   13    1        -0.2997253874E+00      0.5112053812E+00
          0                 2           2             3   13     1       0.4475350640E-03       3   13    1         0.2936462515E-01      0.5040495017E-01
          0                 3           1             3   13     1      -0.2960403633E-04       3   13    1        -0.1997073512E-02      0.3462823914E-02

    ------------------------------------------------
       NWT REQUIRED            3 OUTER ITERATIONS 
       AND A TOTAL OF          5 INNER ITERATIONS.
    ------------------------------------------------

 OUTPUT CONTROL FOR STRESS PERIOD   19   TIME STEP    1
    PRINT BUDGET
    SAVE BUDGET
 UBDSV1 SAVING "         STORAGE" ON UNIT 102 AT TIME STEP  1, STRESS PERIOD  19
 UBDSV2 SAVING "   CONSTANT HEAD" ON UNIT 102 AT TIME STEP  1, STRESS PERIOD  19
 UBDSV1 SAVING "FLOW RIGHT FACE " ON UNIT 102 AT TIME STEP  1, STRESS PERIOD  19
 UBDSV1 SAVING "FLOW FRONT FACE " ON UNIT 102 AT TIME STEP  1, STRESS PERIOD  19

  HEAD DEP BOUNDS   PERIOD   19   STEP     1
 BOUNDARY      1   LAYER   1   ROW    13   COL     1   RATE   -0.294533    
 BOUNDARY      2   LAYER   1   ROW    14   COL     9   RATE    0.285623    



 STREAM LISTING     PERIOD     19   STEP        1

 LAYER ROW COL. STREAM  RCH.  FLOW INTO     FLOW TO   FLOW OUT OF   OVRLND.     DIRECT     STREAM       STREAM     STREAM     STREAM   STREAMBED  STREAMBED
                SEG.NO.  NO.  STRM. RCH.    AQUIFER    STRM. RCH.    RUNOFF     PRECIP       ET          HEAD       DEPTH      WIDTH   CONDCTNC.   GRADIENT

   1    1    1     1     1    4.3652E+01  3.1614E-01   4.3336E+01  0.000E+00  0.000E+00  0.000E+00  1.09441E+03  1.357E+00  1.612E+01  7.255E-02  1.452E+00
   1    2    2     1     2    4.3336E+01  4.8972E-01   4.2846E+01  0.000E+00  0.000E+00  0.000E+00  1.08941E+03  1.355E+00  1.607E+01  1.125E-01  1.452E+00
   1    3    3     1     3    4.2846E+01  4.1777E-01   4.2428E+01  0.000E+00  0.000E+00  0.000E+00  1.08377E+03  1.351E+00  1.600E+01  9.601E-02  1.450E+00
   1    3    4     1     4    4.2428E+01  3.8480E-01   4.2043E+01  0.000E+00  0.000E+00  0.000E+00  1.07876E+03  1.349E+00  1.594E+01  8.849E-02  1.450E+00
   1    4    5     2     1    4.0043E+01  3.5862E-01   3.9685E+01  0.000E+00  0.000E+00  0.000E+00  1.07353E+03  1.598E+00  1.200E+01  7.800E-02  1.533E+00
   1    5    6     2     2    3.9685E+01  2.7540E-01   3.9409E+01  0.000E+00  0.000E+00  0.000E+00  1.06810E+03  1.590E+00  1.200E+01  6.000E-02  1.530E+00
   1    6    6     2     3    3.9409E+01  2.7500E-01   3.9134E+01  0.000E+00  0.000E+00  0.000E+00  1.06338E+03  1.583E+00  1.200E+01  6.000E-02  1.528E+00
   1    7    6     2     4    3.9134E+01  2.7461E-01   3.8860E+01  0.000E+00  0.000E+00  0.000E+00  1.05865E+03  1.577E+00  1.200E+01  6.000E-02  1.526E+00
   1    8    6     2     5    3.8860E+01  2.7421E-01   3.8585E+01  0.000E+00  0.000E+00  0.000E+00  1.05393E+03  1.570E+00  1.200E+01  6.000E-02  1.523E+00
   1    3    5     3     1    2.0000E+00  2.8252E-01   1.7175E+00  0.000E+00  0.000E+00  0.000E+00  1.07555E+03  1.909E+00  9.636E+00  7.227E-02  1.955E+00
   1    3    6     3     2    1.7175E+00  2.4905E-01   1.4684E+00  0.000E+00  0.000E+00  0.000E+00  1.07264E+03  1.727E+00  8.909E+00  6.682E-02  1.864E+00
   1    3    7     3     3    1.4684E+00  1.9718E-01   1.2712E+00  0.000E+00  0.000E+00  0.000E+00  1.06987E+03  1.555E+00  8.218E+00  5.547E-02  1.777E+00
   1    4    8     3     4    1.2712E+00  2.2567E-01   1.0456E+00  0.000E+00  0.000E+00  0.000E+00  1.06682E+03  1.364E+00  7.455E+00  6.709E-02  1.682E+00
   1    5    8     3     5    1.0456E+00  1.5790E-01   8.8768E-01  0.000E+00  0.000E+00  0.000E+00  1.06362E+03  1.164E+00  6.655E+00  4.991E-02  1.582E+00
   1    6    8     3     6    8.8768E-01  5.5980E-02   8.3170E-01  0.000E+00  0.000E+00  0.000E+00  1.06158E+03  1.036E+00  6.145E+00  1.844E-02  1.518E+00
   1    5   10     4     1    1.0000E+01  9.0919E-02   9.9091E+00  0.000E+00  0.000E+00  0.000E+00  1.07836E+03  6.368E-01  1.000E+01  2.500E-02  1.212E+00
   1    5    9     4     2    9.9091E+00  1.8158E-01   9.7275E+00  0.000E+00  0.000E+00  0.000E+00  1.07154E+03  6.315E-01  1.000E+01  5.000E-02  1.211E+00
   1    6    8     4     3    9.7275E+00  1.2689E-01   9.6006E+00  0.000E+00  0.000E+00  0.000E+00  1.06381E+03  6.256E-01  1.000E+01  3.500E-02  1.209E+00
   1    6    8     5     1    1.0432E+01  2.2686E-01   1.0205E+01  0.000E+00  0.000E+00  0.000E+00  1.05868E+03  6.790E-01  1.542E+01  6.166E-02  1.226E+00
   1    7    7     5     2    1.0205E+01  2.7894E-01   9.9265E+00  0.000E+00  0.000E+00  0.000E+00  1.05417E+03  6.732E-01  1.519E+01  7.594E-02  1.224E+00
   1    8    7     5     3    9.9265E+00  1.9221E-01   9.7343E+00  0.000E+00  0.000E+00  0.000E+00  1.04992E+03  6.676E-01  1.497E+01  5.241E-02  1.223E+00
   1    8    6     5     4    9.7343E+00  1.3577E-01   9.5985E+00  0.000E+00  0.000E+00  0.000E+00  1.04691E+03  6.637E-01  1.482E+01  3.706E-02  1.221E+00
   1    9    6     6     1    4.8184E+01  2.8841E-01   4.7896E+01  0.000E+00  0.000E+00  0.000E+00  1.04453E+03  1.807E+00  1.200E+01  6.000E-02  1.602E+00
   1   10    7     6     2    4.7896E+01  2.8802E-01   4.7608E+01  0.000E+00  0.000E+00  0.000E+00  1.03998E+03  1.800E+00  1.200E+01  6.000E-02  1.600E+00
   1   11    7     6     3    4.7608E+01  2.8763E-01   4.7320E+01  0.000E+00  0.000E+00  0.000E+00  1.03543E+03  1.794E+00  1.200E+01  6.000E-02  1.598E+00
   1   12    7     6     4    4.7320E+01  2.8724E-01   4.7033E+01  0.000E+00  0.000E+00  0.000E+00  1.03088E+03  1.787E+00  1.200E+01  6.000E-02  1.596E+00
   1   13    7     6     5    4.7033E+01  1.1890E-02   4.7021E+01  0.000E+00  0.000E+00  0.000E+00  1.02769E+03  1.784E+00  1.200E+01  2.400E-02  1.651E-01
   1   14    9     7     1    1.5000E+02  1.3338E+00   1.4867E+02  0.000E+00  0.000E+00  0.000E+00  1.03987E+03  2.288E+00  5.529E+01  5.593E-01  7.949E-01
   1   13    8     7     2    1.4867E+02  1.8082E+00   1.4686E+02  0.000E+00  0.000E+00  0.000E+00  1.03478E+03  2.279E+00  5.526E+01  6.148E-01  9.804E-01
   1   13    7     7     3    1.4686E+02  1.3920E+00   1.4547E+02  0.000E+00  0.000E+00  0.000E+00  1.02969E+03  2.271E+00  5.522E+01  5.585E-01  8.309E-01
   1   13    6     8     1    1.9249E+02  9.2398E-01   1.9156E+02  0.000E+00  0.000E+00  0.000E+00  1.02497E+03  3.090E+00  4.481E+01  4.566E-01  6.745E-01
   1   13    5     8     2    1.9156E+02  1.4160E-01   1.9142E+02  0.000E+00  0.000E+00  0.000E+00  1.01871E+03  3.087E+00  4.476E+01  4.561E-01  1.035E-01
   1   13    4     8     3    1.9142E+02 -2.5833E+00   1.9400E+02  0.000E+00  0.000E+00  0.000E+00  1.01247E+03  3.094E+00  4.487E+01  4.572E+00 -1.883E-01
   1   13    3     8     4    1.9400E+02 -3.6914E+00   1.9770E+02  0.000E+00  0.000E+00  0.000E+00  1.00624E+03  3.113E+00  4.514E+01  4.600E+00 -2.675E-01
   1   13    2     8     5    1.9770E+02 -2.6474E+00   2.0034E+02  0.000E+00  0.000E+00  0.000E+00  1.00001E+03  3.132E+00  4.541E+01  4.628E+00 -1.907E-01
   1   13    1     8     6    2.0034E+02 -2.0363E+00   2.0238E+02  0.000E+00  0.000E+00  0.000E+00  9.95021E+02  3.146E+00  4.561E+01  2.789E+00 -2.434E-01
   1    8    6     9     1    0.0000E+00  0.0000E+00   0.0000E+00  0.000E+00  0.000E+00  0.000E+00  1.07875E+03  0.000E+00  4.000E+00  0.000E+00  1.000E+00
   1    8    5     9     2    0.0000E+00  0.0000E+00   0.0000E+00  0.000E+00  0.000E+00  0.000E+00  1.07825E+03  0.000E+00  4.000E+00  0.000E+00  1.000E+00



 UBDSV3 SAVING "           GW ET" ON UNIT  61 AT TIME STEP  1, STRESS PERIOD  19
 UBDSV3 SAVING "    UZF RECHARGE" ON UNIT  61 AT TIME STEP  1, STRESS PERIOD  19
 UBDSV3 SAVING " SURFACE LEAKAGE" ON UNIT  61 AT TIME STEP  1, STRESS PERIOD  19
 UBDSV3 SAVING "       HORT+DUNN" ON UNIT  61 AT TIME STEP  1, STRESS PERIOD  19
 UBDSV3 SAVING "  STORAGE CHANGE" ON UNIT  61 AT TIME STEP  1, STRESS PERIOD  19


UNSATURATED ZONE PACKAGE VOLUMETRIC BUDGET FOR  TIME STEP     1 STRESS PERIOD   19
  ------------------------------------------------------------------------------



     CUMULATIVE VOLUMES      L**3       RATES FOR THIS TIME STEP      L**3/T
     ------------------                 ------------------------

           IN:                                      IN:
           ---                                      ---
        INFILTRATION =   198367751.9668          INFILTRATION =           4.4075

          OUT:                                     OUT:
          ----                                     ----
              UZF ET =   142473378.2120                UZF ET =           4.4075
        UZF RECHARGE =      674797.3606          UZF RECHARGE =       0.0000E+00

            IN - OUT =    55219576.3942              IN - OUT =       0.0000E+00

          STORAGE:                                 STORAGE:
          --------                                 --------
      STORAGE CHANGE =    55220222.8207        STORAGE CHANGE =       3.1538E-14

 PERCENT DISCREPANCY IS DIFFERENCE BETWEEN IN-OUT MINUS CHANGE IN STORAGE
 DIVIDED BY THE AVERAGE OF IN AND OUT TIMES 100

 PERCENT DISCREPANCY =          -0.00     PERCENT DISCREPANCY =           0.00






 

            AG WELLS      PERIOD   19   STEP   1
 AG WELL      1   LAYER   1   ROW     6   COL     4   RATE     0.00000    
 AG WELL      2   LAYER   1   ROW     6   COL     5   RATE     0.00000    
 AG WELL      3   LAYER   1   ROW     7   COL     4   RATE     0.00000    
 AG WELL      4   LAYER   1   ROW     7   COL     5   RATE     0.00000    
 AG WELL      5   LAYER   1   ROW     8   COL     4   RATE     0.00000    
 AG WELL      6   LAYER   1   ROW     8   COL     5   RATE     0.00000    
 
 

   DIVERSION SEGMENTS     PERIOD   19   STEP   1
 SEGMENT      9   RATE     0.00000    
 
 

        SW IRRIGATION     PERIOD   19   STEP   1
 SEGMENT      9   ROW     6   COL     4   RATE     0.00000    
 SEGMENT      9   ROW     6   COL     5   RATE     0.00000    
 SEGMENT      9   ROW     7   COL     4   RATE     0.00000    
 SEGMENT      9   ROW     7   COL     5   RATE     0.00000    
 SEGMENT      9   ROW     8   COL     4   RATE     0.00000    
 SEGMENT      9   ROW     8   COL     5   RATE     0.00000    
 
 

        GW IRRIGATION     PERIOD   19   STEP   1
 AG WELL      1   ROW     6   COL     4   RATE     0.00000    
 AG WELL      2   ROW     6   COL     5   RATE     0.00000    
 AG WELL      3   ROW     7   COL     4   RATE     0.00000    
 AG WELL      4   ROW     7   COL     5   RATE     0.00000    
 AG WELL      5   ROW     8   COL     4   RATE     0.00000    
 AG WELL      6   ROW     8   COL     5   RATE     0.00000    
 
1
  VOLUMETRIC BUDGET FOR ENTIRE MODEL AT END OF TIME STEP    1, STRESS PERIOD  19
  ------------------------------------------------------------------------------

     CUMULATIVE VOLUMES      L**3       RATES FOR THIS TIME STEP      L**3/T
     ------------------                 ------------------------

           IN:                                      IN:
           ---                                      ---
               AG WELLS  =           0.0000                 AG WELLS  =           0.0000
        DIVERSION SEGMEN =      848802.5000          DIVERSION SEGMEN =           0.0000
    TS         GW IRRIGA =           0.0000      TS         GW IRRIGA =           0.0000
    TION         SW IRRI =           0.0000      TION         SW IRRI =           0.0000
    GATION      SYSTEM L =           0.0000      GATION      SYSTEM L =           0.0000
    OSSES GW      SYSTEM =           0.1856      OSSES GW      SYSTEM =           0.0000

                TOTAL IN =      848802.6875                  TOTAL IN =           0.0000

          OUT:                                     OUT:
          ----                                     ----
               AG WELLS  =           0.0000                 AG WELLS  =           0.0000
        DIVERSION SEGMEN =           0.0000          DIVERSION SEGMEN =           0.0000
    TS         GW IRRIGA =           0.0000      TS         GW IRRIGA =           0.0000
    TION         SW IRRI =      848819.6875      TION         SW IRRI =           0.0000
    GATION      SYSTEM L =           0.0000      GATION      SYSTEM L =           0.0000
    OSSES GW      SYSTEM =           0.0000      OSSES GW      SYSTEM =           0.0000

               TOTAL OUT =      848819.6875                 TOTAL OUT =           0.0000

                IN - OUT =         -17.0000                  IN - OUT =           0.0000

     PERCENT DISCREPANCY =          -0.00         PERCENT DISCREPANCY =           0.00



1
  VOLUMETRIC BUDGET FOR ENTIRE MODEL AT END OF TIME STEP    1, STRESS PERIOD  19
  ------------------------------------------------------------------------------

     CUMULATIVE VOLUMES      L**3       RATES FOR THIS TIME STEP      L**3/T
     ------------------                 ------------------------

           IN:                                      IN:
           ---                                      ---
             STORAGE     =    25662324.0000               STORAGE     =           0.8029
       CONSTANT HEAD     =           0.0000         CONSTANT HEAD     =           0.0000
     HEAD DEP BOUNDS     =    12822940.0000       HEAD DEP BOUNDS     =           0.2856
      STREAM LEAKAGE     =   542358976.0000        STREAM LEAKAGE     =          12.2306
        UZF RECHARGE     =      674797.2500          UZF RECHARGE     =           0.0000
               GW ET     =           0.0000                 GW ET     =           0.0000
     SURFACE LEAKAGE     =           0.0000       SURFACE LEAKAGE     =           0.0000
           AG WELLS      =           0.0000             AG WELLS      =           0.0000

                TOTAL IN =   581519040.0000                  TOTAL IN =          13.3191

          OUT:                                     OUT:
          ----                                     ----
             STORAGE     =    82975328.0000               STORAGE     =           1.5120
       CONSTANT HEAD     =           0.0000         CONSTANT HEAD     =           0.0000
     HEAD DEP BOUNDS     =    13135259.0000       HEAD DEP BOUNDS     =           0.2945
      STREAM LEAKAGE     =   477600160.0000        STREAM LEAKAGE     =          10.9584
        UZF RECHARGE     =           0.0000          UZF RECHARGE     =           0.0000
               GW ET     =     7820742.5000                 GW ET     =           0.5543
     SURFACE LEAKAGE     =           0.0000       SURFACE LEAKAGE     =           0.0000
           AG WELLS      =           0.0000             AG WELLS      =           0.0000

               TOTAL OUT =   581531456.0000                 TOTAL OUT =          13.3193

                IN - OUT =      -12416.0000                  IN - OUT =      -1.8501E-04

     PERCENT DISCREPANCY =          -0.00         PERCENT DISCREPANCY =          -0.00






         TIME SUMMARY AT END OF TIME STEP    1 IN STRESS PERIOD   19
                    SECONDS     MINUTES      HOURS       DAYS        YEARS
                    -----------------------------------------------------------
   TIME STEP LENGTH  87667.      1461.1      24.352      1.0147     2.77799E-03
 STRESS PERIOD TIME  87667.      1461.1      24.352      1.0147     2.77799E-03
         TOTAL TIME 4.48841E+07 7.48069E+05  12468.      519.49      1.4223    
1
 
 SOLVING FOR HEAD 
                                                   Max.-Head-Change                         Max.-Flux-Residual
  Residual-Control   Outer-Iter.   Inner-Iter.     Column Row Layer    Maximum-Head-Change  Column Row Layer    Maximum-Flux-Residual          L2-NORM 
          0                 1           2             3   13     1      -0.3874646562E-02       3   13    1        -0.2471309997E+00      0.4552033319E+00
          0                 2           2             3   13     1       0.3692071245E-03       3   13    1         0.2421146455E-01      0.4493207424E-01
          0                 3           1             3   13     1      -0.2442264649E-04       3   13    1        -0.1646586419E-02      0.3091171362E-02

    ------------------------------------------------
       NWT REQUIRED            3 OUTER ITERATIONS 
       AND A TOTAL OF          5 INNER ITERATIONS.
    ------------------------------------------------

 NO OUTPUT CONTROL FOR STRESS PERIOD   19   TIME STEP    2
 
 SOLVING FOR HEAD 
                                                   Max.-Head-Change                         Max.-Flux-Residual
  Residual-Control   Outer-Iter.   Inner-Iter.     Column Row Layer    Maximum-Head-Change  Column Row Layer    Maximum-Flux-Residual          L2-NORM 
          0                 1           2             3   13     1      -0.3161177187E-02       3   13    1        -0.2015186028E+00      0.4098989417E+00
          0                 2           2             3   13     1       0.3012347405E-03       3   13    1         0.1974351774E-01      0.4052474433E-01
          0                 3           1             3   13     1      -0.1992225985E-04       3   13    1        -0.1342445485E-02      0.2793625612E-02

    ------------------------------------------------
       NWT REQUIRED            3 OUTER ITERATIONS 
       AND A TOTAL OF          5 INNER ITERATIONS.
    ------------------------------------------------

 NO OUTPUT CONTROL FOR STRESS PERIOD   19   TIME STEP    3
 
 SOLVING FOR HEAD 
                                                   Max.-Head-Change                         Max.-Flux-Residual
  Residual-Control   Outer-Iter.   Inner-Iter.     Column Row Layer    Maximum-Head-Change  Column Row Layer    Maximum-Flux-Residual          L2-NORM 
          0                 1           2             1    1     1       0.2824236380E-02       3   13    1        -0.1644084929E+00      0.3765149832E+00
          0                 2           2             1    1     1      -0.2747213402E-03       3   13    1         0.1610707220E-01      0.3728669969E-01
          0                 3           1             1    1     1       0.1870750292E-04       3   13    1        -0.1094873709E-02      0.2576274362E-02

    ------------------------------------------------
       NWT REQUIRED            3 OUTER ITERATIONS 
       AND A TOTAL OF          5 INNER ITERATIONS.
    ------------------------------------------------

 NO OUTPUT CONTROL FOR STRESS PERIOD   19   TIME STEP    4
 
 SOLVING FOR HEAD 
                                                   Max.-Head-Change                         Max.-Flux-Residual
  Residual-Control   Outer-Iter.   Inner-Iter.     Column Row Layer    Maximum-Head-Change  Column Row Layer    Maximum-Flux-Residual          L2-NORM 
          0                 1           2             1    1     1       0.2822364356E-02       1    1    1         0.1464593124E+00      0.3522263915E+00
          0                 2           2             1    1     1      -0.2745392432E-03       1    1    1        -0.1464594147E-01      0.3494115142E-01
          0                 3           1             1    1     1       0.1869510337E-04       1    1    1         0.1025216263E-02      0.2419760507E-02

    ------------------------------------------------
       NWT REQUIRED            3 OUTER ITERATIONS 
       AND A TOTAL OF          5 INNER ITERATIONS.
    ------------------------------------------------

 NO OUTPUT CONTROL FOR STRESS PERIOD   19   TIME STEP    5
 
 SOLVING FOR HEAD 
                                                   Max.-Head-Change                         Max.-Flux-Residual
  Residual-Control   Outer-Iter.   Inner-Iter.     Column Row Layer    Maximum-Head-Change  Column Row Layer    Maximum-Flux-Residual          L2-NORM 
          0                 1           2             1    1     1       0.2820497954E-02       1    1    1         0.1463622512E+00      0.3347172472E+00
          0                 2           2             1    1     1      -0.2743576925E-03       1    1    1        -0.1463623532E-01      0.3325477179E-01
          0                 3           1             1    1     1       0.1868274027E-04       1    1    1         0.1024536816E-02      0.2308107809E-02

    ------------------------------------------------
       NWT REQUIRED            3 OUTER ITERATIONS 
       AND A TOTAL OF          5 INNER ITERATIONS.
    ------------------------------------------------

 NO OUTPUT CONTROL FOR STRESS PERIOD   19   TIME STEP    6
 
 SOLVING FOR HEAD 
                                                   Max.-Head-Change                         Max.-Flux-Residual
  Residual-Control   Outer-Iter.   Inner-Iter.     Column Row Layer    Maximum-Head-Change  Column Row Layer    Maximum-Flux-Residual          L2-NORM 
          0                 1           2             1    1     1       0.2818637154E-02       1    1    1         0.1462654815E+00      0.3221481800E+00
          0                 2           2             1    1     1      -0.2741766866E-03       1    1    1        -0.1462655831E-01      0.3204850255E-01
          0                 3           1             1    1     1       0.1867041457E-04       1    1    1         0.1023859423E-02      0.2227913862E-02

    ------------------------------------------------
       NWT REQUIRED            3 OUTER ITERATIONS 
       AND A TOTAL OF          5 INNER ITERATIONS.
    ------------------------------------------------

 NO OUTPUT CONTROL FOR STRESS PERIOD   19   TIME STEP    7
 
 SOLVING FOR HEAD 
                                                   Max.-Head-Change                         Max.-Flux-Residual
  Residual-Control   Outer-Iter.   Inner-Iter.     Column Row Layer    Maximum-Head-Change  Column Row Layer    Maximum-Flux-Residual          L2-NORM 
          0                 1           2             1    1     1       0.2816781961E-02       1    1    1         0.1461690024E+00      0.3131103342E+00
          0                 2           2             1    1     1      -0.2739962268E-03       1    1    1        -0.1461691036E-01      0.3118376110E-01
          0                 3           1             1    1     1       0.1865812578E-04       1    1    1         0.1023184081E-02      0.2171567081E-02

    ------------------------------------------------
       NWT REQUIRED            3 OUTER ITERATIONS 
       AND A TOTAL OF          5 INNER ITERATIONS.
    ------------------------------------------------

 NO OUTPUT CONTROL FOR STRESS PERIOD   19   TIME STEP    8
 
 SOLVING FOR HEAD 
                                                   Max.-Head-Change                         Max.-Flux-Residual
  Residual-Control   Outer-Iter.   Inner-Iter.     Column Row Layer    Maximum-Head-Change  Column Row Layer    Maximum-Flux-Residual          L2-NORM 
          0                 1           2             1    1     1       0.2814932331E-02       1    1    1         0.1460728139E+00      0.3065723774E+00
          0                 2           2             1    1     1      -0.2738163074E-03       1    1    1        -0.1460729148E-01      0.3055967431E-01
          0                 3           1             1    1     1       0.1864587368E-04       1    1    1         0.1022510738E-02      0.2130017247E-02

    ------------------------------------------------
       NWT REQUIRED            3 OUTER ITERATIONS 
       AND A TOTAL OF          5 INNER ITERATIONS.
    ------------------------------------------------

 NO OUTPUT CONTROL FOR STRESS PERIOD   19   TIME STEP    9
 
 SOLVING FOR HEAD 
                                                   Max.-Head-Change                         Max.-Flux-Residual
  Residual-Control   Outer-Iter.   Inner-Iter.     Column Row Layer    Maximum-Head-Change  Column Row Layer    Maximum-Flux-Residual          L2-NORM 
          0                 1           2             1    1     1       0.2813088244E-02       1    1    1         0.1459769139E+00      0.3017814391E+00
          0                 2           2             1    1     1      -0.2736369274E-03       1    1    1        -0.1459770145E-01      0.3010246630E-01
          0                 3           1             1    1     1       0.1863365873E-04       1    1    1         0.1021839436E-02      0.2100030043E-02

    ------------------------------------------------
       NWT REQUIRED            3 OUTER ITERATIONS 
       AND A TOTAL OF          5 INNER ITERATIONS.
    ------------------------------------------------

 NO OUTPUT CONTROL FOR STRESS PERIOD   19   TIME STEP   10
 
 SOLVING FOR HEAD 
                                                   Max.-Head-Change                         Max.-Flux-Residual
  Residual-Control   Outer-Iter.   Inner-Iter.     Column Row Layer    Maximum-Head-Change  Column Row Layer    Maximum-Flux-Residual          L2-NORM 
          0                 1           2             1    1     1       0.2811249679E-02       1    1    1         0.1458813012E+00      0.2982201638E+00
          0                 2           2             1    1     1      -0.2734580848E-03       1    1    1        -0.1458814015E-01      0.2976331865E-01
          0                 3           1             1    1     1       0.1862148024E-04       1    1    1         0.1021170153E-02      0.2078306454E-02

    ------------------------------------------------
       NWT REQUIRED            3 OUTER ITERATIONS 
       AND A TOTAL OF          5 INNER ITERATIONS.
    ------------------------------------------------

 NO OUTPUT CONTROL FOR STRESS PERIOD   19   TIME STEP   11
 
 SOLVING FOR HEAD 
                                                   Max.-Head-Change                         Max.-Flux-Residual
  Residual-Control   Outer-Iter.   Inner-Iter.     Column Row Layer    Maximum-Head-Change  Column Row Layer    Maximum-Flux-Residual          L2-NORM 
          0                 1           2             1    1     1       0.2809416644E-02       1    1    1         0.1457859749E+00      0.2955187976E+00
          0                 2           2             1    1     1      -0.2732797801E-03       1    1    1        -0.1457860749E-01      0.2950625245E-01
          0                 3           1             1    1     1       0.1860933842E-04       1    1    1         0.1020502860E-02      0.2061403393E-02

    ------------------------------------------------
       NWT REQUIRED            3 OUTER ITERATIONS 
       AND A TOTAL OF          5 INNER ITERATIONS.
    ------------------------------------------------

 NO OUTPUT CONTROL FOR STRESS PERIOD   19   TIME STEP   12
 
 SOLVING FOR HEAD 
                                                   Max.-Head-Change                         Max.-Flux-Residual
  Residual-Control   Outer-Iter.   Inner-Iter.     Column Row Layer    Maximum-Head-Change  Column Row Layer    Maximum-Flux-Residual          L2-NORM 
          0                 1           2             1    1     1       0.2807589075E-02       1    1    1         0.1456909353E+00      0.2934262648E+00
          0                 2           2             1    1     1      -0.2731020070E-03       1    1    1        -0.1456910350E-01      0.2930647444E-01
          0                 3           1             1    1     1       0.1859723259E-04       1    1    1         0.1019837583E-02      0.2048095437E-02

    ------------------------------------------------
       NWT REQUIRED            3 OUTER ITERATIONS 
       AND A TOTAL OF          5 INNER ITERATIONS.
    ------------------------------------------------

 NO OUTPUT CONTROL FOR STRESS PERIOD   19   TIME STEP   13
 
 SOLVING FOR HEAD 
                                                   Max.-Head-Change                         Max.-Flux-Residual
  Residual-Control   Outer-Iter.   Inner-Iter.     Column Row Layer    Maximum-Head-Change  Column Row Layer    Maximum-Flux-Residual          L2-NORM 
          0                 1           2             1    1     1       0.2805766970E-02       1    1    1         0.1455961791E+00      0.2917626082E+00
          0                 2           2             1    1     1      -0.2729247657E-03       1    1    1        -0.1455962784E-01      0.2914751259E-01
          0                 3           1             1    1     1       0.1858516391E-04       1    1    1         0.1019174316E-02      0.2037624803E-02

    ------------------------------------------------
       NWT REQUIRED            3 OUTER ITERATIONS 
       AND A TOTAL OF          5 INNER ITERATIONS.
    ------------------------------------------------

 NO OUTPUT CONTROL FOR STRESS PERIOD   19   TIME STEP   14
 
 SOLVING FOR HEAD 
                                                   Max.-Head-Change                         Max.-Flux-Residual
  Residual-Control   Outer-Iter.   Inner-Iter.     Column Row Layer    Maximum-Head-Change  Column Row Layer    Maximum-Flux-Residual          L2-NORM 
          0                 1           2             1    1     1       0.2803950310E-02       1    1    1         0.1455017062E+00      0.2904082652E+00
          0                 2           2             1    1     1      -0.2727480533E-03       1    1    1        -0.1455018053E-01      0.2901785393E-01
          0                 3           1             1    1     1       0.1857312954E-04       1    1    1         0.1018512968E-02      0.2029178838E-02

    ------------------------------------------------
       NWT REQUIRED            3 OUTER ITERATIONS 
       AND A TOTAL OF          5 INNER ITERATIONS.
    ------------------------------------------------

 NO OUTPUT CONTROL FOR STRESS PERIOD   19   TIME STEP   15
 
 SOLVING FOR HEAD 
                                                   Max.-Head-Change                         Max.-Flux-Residual
  Residual-Control   Outer-Iter.   Inner-Iter.     Column Row Layer    Maximum-Head-Change  Column Row Layer    Maximum-Flux-Residual          L2-NORM 
          0                 1           2             1    1     1       0.2802139100E-02       1    1    1         0.1454075156E+00      0.2892888857E+00
          0                 2           2             1    1     1      -0.2725718714E-03       1    1    1        -0.1454076141E-01      0.2891006836E-01
          0                 3           1             1    1     1       0.1856113281E-04       1    1    1         0.1017853654E-02      0.2021797069E-02

    ------------------------------------------------
       NWT REQUIRED            3 OUTER ITERATIONS 
       AND A TOTAL OF          5 INNER ITERATIONS.
    ------------------------------------------------

 NO OUTPUT CONTROL FOR STRESS PERIOD   19   TIME STEP   16
 
 SOLVING FOR HEAD 
                                                   Max.-Head-Change                         Max.-Flux-Residual
  Residual-Control   Outer-Iter.   Inner-Iter.     Column Row Layer    Maximum-Head-Change  Column Row Layer    Maximum-Flux-Residual          L2-NORM 
          0                 1           2             1    1     1       0.2800333295E-02       1    1    1         0.1453136076E+00      0.2883370384E+00
          0                 2           2             1    1     1      -0.2723962154E-03       1    1    1        -0.1453137058E-01      0.2881841394E-01
          0                 3           1             1    1     1       0.1854917111E-04       1    1    1         0.1017196300E-02      0.2017120607E-02

    ------------------------------------------------
       NWT REQUIRED            3 OUTER ITERATIONS 
       AND A TOTAL OF          5 INNER ITERATIONS.
    ------------------------------------------------

 NO OUTPUT CONTROL FOR STRESS PERIOD   19   TIME STEP   17
 
 SOLVING FOR HEAD 
                                                   Max.-Head-Change                         Max.-Flux-Residual
  Residual-Control   Outer-Iter.   Inner-Iter.     Column Row Layer    Maximum-Head-Change  Column Row Layer    Maximum-Flux-Residual          L2-NORM 
          0                 1           2             1    1     1       0.2798532877E-02       1    1    1         0.1452199799E+00      0.2875162897E+00
          0                 2           2             1    1     1      -0.2722210834E-03       1    1    1        -0.1452200778E-01      0.2873917380E-01
          0                 3           1             1    1     1       0.1853724514E-04       1    1    1         0.1016540893E-02      0.2010530778E-02

    ------------------------------------------------
       NWT REQUIRED            3 OUTER ITERATIONS 
       AND A TOTAL OF          5 INNER ITERATIONS.
    ------------------------------------------------

 NO OUTPUT CONTROL FOR STRESS PERIOD   19   TIME STEP   18
 
 SOLVING FOR HEAD 
                                                   Max.-Head-Change                         Max.-Flux-Residual
  Residual-Control   Outer-Iter.   Inner-Iter.     Column Row Layer    Maximum-Head-Change  Column Row Layer    Maximum-Flux-Residual          L2-NORM 
          0                 1           2             1    1     1       0.2796715217E-02       1    1    1         0.1451254549E+00      0.2867976237E+00
          0                 2           2             1    1     1      -0.2720442740E-03       1    1    1        -0.1451255526E-01      0.2866962184E-01
          0                 3           1             1    1     1       0.1852520486E-04       1    1    1         0.1015879208E-02      0.2005834023E-02

    ------------------------------------------------
       NWT REQUIRED            3 OUTER ITERATIONS 
       AND A TOTAL OF          5 INNER ITERATIONS.
    ------------------------------------------------

 NO OUTPUT CONTROL FOR STRESS PERIOD   19   TIME STEP   19
 
 SOLVING FOR HEAD 
                                                   Max.-Head-Change                         Max.-Flux-Residual
  Residual-Control   Outer-Iter.   Inner-Iter.     Column Row Layer    Maximum-Head-Change  Column Row Layer    Maximum-Flux-Residual          L2-NORM 
          0                 1           2             1    1     1       0.2794925595E-02       1    1    1         0.1450323890E+00      0.2861583156E+00
          0                 2           2             1    1     1      -0.2718701921E-03       1    1    1        -0.1450324862E-01      0.2860750824E-01
          0                 3           1             1    1     1       0.1851335085E-04       1    1    1         0.1015227754E-02      0.2001858938E-02

    ------------------------------------------------
       NWT REQUIRED            3 OUTER ITERATIONS 
       AND A TOTAL OF          5 INNER ITERATIONS.
    ------------------------------------------------

 NO OUTPUT CONTROL FOR STRESS PERIOD   19   TIME STEP   20
 
 SOLVING FOR HEAD 
                                                   Max.-Head-Change                         Max.-Flux-Residual
  Residual-Control   Outer-Iter.   Inner-Iter.     Column Row Layer    Maximum-Head-Change  Column Row Layer    Maximum-Flux-Residual          L2-NORM 
          0                 1           2             1    1     1       0.2793141302E-02       1    1    1         0.1449396003E+00      0.2855841511E+00
          0                 2           2             1    1     1      -0.2716966286E-03       1    1    1        -0.1449396973E-01      0.2855146920E-01
          0                 3           1             1    1     1       0.1850153186E-04       1    1    1         0.1014578232E-02      0.1997920583E-02

    ------------------------------------------------
       NWT REQUIRED            3 OUTER ITERATIONS 
       AND A TOTAL OF          5 INNER ITERATIONS.
    ------------------------------------------------

 NO OUTPUT CONTROL FOR STRESS PERIOD   19   TIME STEP   21
 
 SOLVING FOR HEAD 
                                                   Max.-Head-Change                         Max.-Flux-Residual
  Residual-Control   Outer-Iter.   Inner-Iter.     Column Row Layer    Maximum-Head-Change  Column Row Layer    Maximum-Flux-Residual          L2-NORM 
          0                 1           2             1    1     1       0.2791362343E-02       1    1    1         0.1448470879E+00      0.2850652078E+00
          0                 2           2             1    1     1      -0.2715235841E-03       1    1    1        -0.1448471847E-01      0.2850071608E-01
          0                 3           1             1    1     1       0.1848974813E-04       1    1    1         0.1013930644E-02      0.1994544051E-02

    ------------------------------------------------
       NWT REQUIRED            3 OUTER ITERATIONS 
       AND A TOTAL OF          5 INNER ITERATIONS.
    ------------------------------------------------

 NO OUTPUT CONTROL FOR STRESS PERIOD   19   TIME STEP   22
 
 SOLVING FOR HEAD 
                                                   Max.-Head-Change                         Max.-Flux-Residual
  Residual-Control   Outer-Iter.   Inner-Iter.     Column Row Layer    Maximum-Head-Change  Column Row Layer    Maximum-Flux-Residual          L2-NORM 
          0                 1           2             1    1     1       0.2789588674E-02       1    1    1         0.1447548521E+00      0.2845925967E+00
          0                 2           2             1    1     1      -0.2713510539E-03       1    1    1        -0.1447549486E-01      0.2845430747E-01
          0                 3           1             1    1     1       0.1847799943E-04       1    1    1         0.1013284985E-02      0.1991270907E-02

    ------------------------------------------------
       NWT REQUIRED            3 OUTER ITERATIONS 
       AND A TOTAL OF          5 INNER ITERATIONS.
    ------------------------------------------------

 NO OUTPUT CONTROL FOR STRESS PERIOD   19   TIME STEP   23
 
 SOLVING FOR HEAD 
                                                   Max.-Head-Change                         Max.-Flux-Residual
  Residual-Control   Outer-Iter.   Inner-Iter.     Column Row Layer    Maximum-Head-Change  Column Row Layer    Maximum-Flux-Residual          L2-NORM 
          0                 1           2             1    1     1       0.2787797641E-02       1    1    1         0.1446617136E+00      0.2841517020E+00
          0                 2           2             1    1     1      -0.2711768348E-03       1    1    1        -0.1446618097E-01      0.2841097194E-01
          0                 3           1             1    1     1       0.1846613547E-04       1    1    1         0.1012633013E-02      0.1988350404E-02

    ------------------------------------------------
       NWT REQUIRED            3 OUTER ITERATIONS 
       AND A TOTAL OF          5 INNER ITERATIONS.
    ------------------------------------------------

 NO OUTPUT CONTROL FOR STRESS PERIOD   19   TIME STEP   24
 
 SOLVING FOR HEAD 
                                                   Max.-Head-Change                         Max.-Flux-Residual
  Residual-Control   Outer-Iter.   Inner-Iter.     Column Row Layer    Maximum-Head-Change  Column Row Layer    Maximum-Flux-Residual          L2-NORM 
          0                 1           2             1    1     1       0.2786034561E-02       1    1    1         0.1445700288E+00      0.2837436660E+00
          0                 2           2             1    1     1      -0.2710053346E-03       1    1    1        -0.1445701246E-01      0.2837086515E-01
          0                 3           1             1    1     1       0.1845445731E-04       1    1    1         0.1011991216E-02      0.1985696017E-02

    ------------------------------------------------
       NWT REQUIRED            3 OUTER ITERATIONS 
       AND A TOTAL OF          5 INNER ITERATIONS.
    ------------------------------------------------

 NO OUTPUT CONTROL FOR STRESS PERIOD   19   TIME STEP   25
 
 SOLVING FOR HEAD 
                                                   Max.-Head-Change                         Max.-Flux-Residual
  Residual-Control   Outer-Iter.   Inner-Iter.     Column Row Layer    Maximum-Head-Change  Column Row Layer    Maximum-Flux-Residual          L2-NORM 
          0                 1           2             1    1     1       0.2784276712E-02       1    1    1         0.1444786162E+00      0.2833687959E+00
          0                 2           2             1    1     1      -0.2708343435E-03       1    1    1        -0.1444787117E-01      0.2833382821E-01
          0                 3           1             1    1     1       0.1844281322E-04       1    1    1         0.1011351318E-02      0.1983141352E-02

    ------------------------------------------------
       NWT REQUIRED            3 OUTER ITERATIONS 
       AND A TOTAL OF          5 INNER ITERATIONS.
    ------------------------------------------------

 NO OUTPUT CONTROL FOR STRESS PERIOD   19   TIME STEP   26
 
 SOLVING FOR HEAD 
                                                   Max.-Head-Change                         Max.-Flux-Residual
  Residual-Control   Outer-Iter.   Inner-Iter.     Column Row Layer    Maximum-Head-Change  Column Row Layer    Maximum-Flux-Residual          L2-NORM 
          0                 1           2             1    1     1       0.2782524103E-02       1    1    1         0.1443874750E+00      0.2830085990E+00
          0                 2           2             1    1     1      -0.2706638613E-03       1    1    1        -0.1443875700E-01      0.2829828871E-01
          0                 3           1             1    1     1       0.1843120392E-04       1    1    1         0.1010713320E-02      0.1980573061E-02

    ------------------------------------------------
       NWT REQUIRED            3 OUTER ITERATIONS 
       AND A TOTAL OF          5 INNER ITERATIONS.
    ------------------------------------------------

 NO OUTPUT CONTROL FOR STRESS PERIOD   19   TIME STEP   27
 
 SOLVING FOR HEAD 
                                                   Max.-Head-Change                         Max.-Flux-Residual
  Residual-Control   Outer-Iter.   Inner-Iter.     Column Row Layer    Maximum-Head-Change  Column Row Layer    Maximum-Flux-Residual          L2-NORM 
          0                 1           2             1    1     1       0.2780754022E-02       1    1    1         0.1442954280E+00      0.2826785824E+00
          0                 2           2             1    1     1      -0.2704916812E-03       1    1    1        -0.1442955230E-01      0.2826565671E-01
          0                 3           1             1    1     1       0.1841947984E-04       1    1    1         0.1010069024E-02      0.1989141825E-02

    ------------------------------------------------
       NWT REQUIRED            3 OUTER ITERATIONS 
       AND A TOTAL OF          5 INNER ITERATIONS.
    ------------------------------------------------

 NO OUTPUT CONTROL FOR STRESS PERIOD   19   TIME STEP   28
 
 SOLVING FOR HEAD 
                                                   Max.-Head-Change                         Max.-Flux-Residual
  Residual-Control   Outer-Iter.   Inner-Iter.     Column Row Layer    Maximum-Head-Change  Column Row Layer    Maximum-Flux-Residual          L2-NORM 
          0                 1           2             1    1     1       0.2694768543E-02       1    1    1         0.1398288569E+00      0.2813347265E+00
          0                 2           2             1    1     1      -0.2621276232E-03       1    1    1        -0.1398289418E-01      0.2809616415E-01
          0                 3           1             1    1     1       0.1784991803E-04       1    1    1         0.9788029321E-03      0.1963175376E-02

    ------------------------------------------------
       NWT REQUIRED            3 OUTER ITERATIONS 
       AND A TOTAL OF          5 INNER ITERATIONS.
    ------------------------------------------------

 NO OUTPUT CONTROL FOR STRESS PERIOD   19   TIME STEP   29
 
 SOLVING FOR HEAD 
                                                   Max.-Head-Change                         Max.-Flux-Residual
  Residual-Control   Outer-Iter.   Inner-Iter.     Column Row Layer    Maximum-Head-Change  Column Row Layer    Maximum-Flux-Residual          L2-NORM 
          0                 1           2             1    1     1       0.2585241803E-02       1    1    1         0.1341394670E+00      0.2895325512E+00
          0                 2           2             1    1     1      -0.2514736402E-03       1    1    1        -0.1341395401E-01      0.2882879479E-01
          0                 3           1             1    1     1       0.1712442168E-04       1    1    1         0.9389771170E-03      0.2006574248E-02

    ------------------------------------------------
       NWT REQUIRED            3 OUTER ITERATIONS 
       AND A TOTAL OF          5 INNER ITERATIONS.
    ------------------------------------------------

 NO OUTPUT CONTROL FOR STRESS PERIOD   19   TIME STEP   30



 STREAM LISTING     PERIOD     19   STEP       30

 LAYER ROW COL. STREAM  RCH.  FLOW INTO     FLOW TO   FLOW OUT OF   OVRLND.     DIRECT     STREAM       STREAM     STREAM     STREAM   STREAMBED  STREAMBED
                SEG.NO.  NO.  STRM. RCH.    AQUIFER    STRM. RCH.    RUNOFF     PRECIP       ET          HEAD       DEPTH      WIDTH   CONDCTNC.   GRADIENT

   1    1    1     1     1    4.0501E+01  3.0566E-01   4.0195E+01  0.000E+00  0.000E+00  0.000E+00  1.09438E+03  1.335E+00  1.567E+01  7.051E-02  1.445E+00
   1    2    2     1     2    4.0195E+01  4.7341E-01   3.9722E+01  0.000E+00  0.000E+00  0.000E+00  1.08939E+03  1.332E+00  1.561E+01  1.093E-01  1.444E+00
   1    3    3     1     3    3.9722E+01  4.0378E-01   3.9318E+01  0.000E+00  0.000E+00  0.000E+00  1.08375E+03  1.329E+00  1.555E+01  9.328E-02  1.443E+00
   1    3    4     1     4    3.9318E+01  3.7185E-01   3.8946E+01  0.000E+00  0.000E+00  0.000E+00  1.07873E+03  1.326E+00  1.549E+01  8.596E-02  1.442E+00
   1    4    5     2     1    3.6946E+01  3.5272E-01   3.6593E+01  0.000E+00  0.000E+00  0.000E+00  1.07346E+03  1.522E+00  1.200E+01  7.800E-02  1.507E+00
   1    5    6     2     2    3.6593E+01  2.7086E-01   3.6322E+01  0.000E+00  0.000E+00  0.000E+00  1.06802E+03  1.514E+00  1.200E+01  6.000E-02  1.505E+00
   1    6    6     2     3    3.6322E+01  2.7045E-01   3.6052E+01  0.000E+00  0.000E+00  0.000E+00  1.06330E+03  1.508E+00  1.200E+01  6.000E-02  1.503E+00
   1    7    6     2     4    3.6052E+01  2.7005E-01   3.5782E+01  0.000E+00  0.000E+00  0.000E+00  1.05858E+03  1.501E+00  1.200E+01  6.000E-02  1.500E+00
   1    8    6     2     5    3.5782E+01  2.6964E-01   3.5512E+01  0.000E+00  0.000E+00  0.000E+00  1.05385E+03  1.494E+00  1.200E+01  6.000E-02  1.498E+00
   1    3    5     3     1    2.0000E+00  2.8252E-01   1.7175E+00  0.000E+00  0.000E+00  0.000E+00  1.07555E+03  1.909E+00  9.636E+00  7.227E-02  1.955E+00
   1    3    6     3     2    1.7175E+00  2.4905E-01   1.4684E+00  0.000E+00  0.000E+00  0.000E+00  1.07264E+03  1.727E+00  8.909E+00  6.682E-02  1.864E+00
   1    3    7     3     3    1.4684E+00  1.9718E-01   1.2712E+00  0.000E+00  0.000E+00  0.000E+00  1.06987E+03  1.555E+00  8.218E+00  5.547E-02  1.777E+00
   1    4    8     3     4    1.2712E+00  2.2567E-01   1.0456E+00  0.000E+00  0.000E+00  0.000E+00  1.06682E+03  1.364E+00  7.455E+00  6.709E-02  1.682E+00
   1    5    8     3     5    1.0456E+00  1.5790E-01   8.8768E-01  0.000E+00  0.000E+00  0.000E+00  1.06362E+03  1.164E+00  6.655E+00  4.991E-02  1.582E+00
   1    6    8     3     6    8.8768E-01  5.5980E-02   8.3170E-01  0.000E+00  0.000E+00  0.000E+00  1.06158E+03  1.036E+00  6.145E+00  1.844E-02  1.518E+00
   1    5   10     4     1    1.0000E+01  9.0919E-02   9.9091E+00  0.000E+00  0.000E+00  0.000E+00  1.07836E+03  6.368E-01  1.000E+01  2.500E-02  1.212E+00
   1    5    9     4     2    9.9091E+00  1.8158E-01   9.7275E+00  0.000E+00  0.000E+00  0.000E+00  1.07154E+03  6.315E-01  1.000E+01  5.000E-02  1.211E+00
   1    6    8     4     3    9.7275E+00  1.2689E-01   9.6006E+00  0.000E+00  0.000E+00  0.000E+00  1.06381E+03  6.256E-01  1.000E+01  3.500E-02  1.209E+00
   1    6    8     5     1    1.0432E+01  2.2686E-01   1.0205E+01  0.000E+00  0.000E+00  0.000E+00  1.05868E+03  6.790E-01  1.542E+01  6.166E-02  1.226E+00
   1    7    7     5     2    1.0205E+01  2.7894E-01   9.9265E+00  0.000E+00  0.000E+00  0.000E+00  1.05417E+03  6.732E-01  1.519E+01  7.594E-02  1.224E+00
   1    8    7     5     3    9.9265E+00  1.9221E-01   9.7343E+00  0.000E+00  0.000E+00  0.000E+00  1.04992E+03  6.676E-01  1.497E+01  5.241E-02  1.223E+00
   1    8    6     5     4    9.7343E+00  1.3577E-01   9.5985E+00  0.000E+00  0.000E+00  0.000E+00  1.04691E+03  6.637E-01  1.482E+01  3.706E-02  1.221E+00
   1    9    6     6     1    4.5111E+01  2.8420E-01   4.4827E+01  0.000E+00  0.000E+00  0.000E+00  1.04446E+03  1.737E+00  1.200E+01  6.000E-02  1.579E+00
   1   10    7     6     2    4.4827E+01  2.8380E-01   4.4543E+01  0.000E+00  0.000E+00  0.000E+00  1.03991E+03  1.730E+00  1.200E+01  6.000E-02  1.577E+00
   1   11    7     6     3    4.4543E+01  2.8341E-01   4.4259E+01  0.000E+00  0.000E+00  0.000E+00  1.03536E+03  1.723E+00  1.200E+01  6.000E-02  1.574E+00
   1   12    7     6     4    4.4259E+01  2.8301E-01   4.3976E+01  0.000E+00  0.000E+00  0.000E+00  1.03081E+03  1.717E+00  1.200E+01  6.000E-02  1.572E+00
   1   13    7     6     5    4.3976E+01  1.0128E-02   4.3966E+01  0.000E+00  0.000E+00  0.000E+00  1.02762E+03  1.713E+00  1.200E+01  2.400E-02  1.407E-01
   1   14    9     7     1    1.5000E+02  1.3337E+00   1.4867E+02  0.000E+00  0.000E+00  0.000E+00  1.03987E+03  2.288E+00  5.529E+01  5.593E-01  7.949E-01
   1   13    8     7     2    1.4867E+02  1.8066E+00   1.4686E+02  0.000E+00  0.000E+00  0.000E+00  1.03478E+03  2.279E+00  5.526E+01  6.148E-01  9.795E-01
   1   13    7     7     3    1.4686E+02  1.3904E+00   1.4547E+02  0.000E+00  0.000E+00  0.000E+00  1.02969E+03  2.271E+00  5.522E+01  5.585E-01  8.299E-01
   1   13    6     8     1    1.8944E+02  9.1186E-01   1.8852E+02  0.000E+00  0.000E+00  0.000E+00  1.02495E+03  3.072E+00  4.454E+01  4.539E-01  6.697E-01
   1   13    5     8     2    1.8852E+02  1.3595E-01   1.8839E+02  0.000E+00  0.000E+00  0.000E+00  1.01869E+03  3.069E+00  4.449E+01  4.534E-01  9.995E-02
   1   13    4     8     3    1.8839E+02 -2.5679E+00   1.9096E+02  0.000E+00  0.000E+00  0.000E+00  1.01245E+03  3.076E+00  4.460E+01  4.545E+00 -1.883E-01
   1   13    3     8     4    1.9096E+02 -3.6590E+00   1.9461E+02  0.000E+00  0.000E+00  0.000E+00  1.00622E+03  3.095E+00  4.487E+01  4.573E+00 -2.667E-01
   1   13    2     8     5    1.9461E+02 -2.6278E+00   1.9724E+02  0.000E+00  0.000E+00  0.000E+00  9.99989E+02  3.114E+00  4.515E+01  4.601E+00 -1.904E-01
   1   13    1     8     6    1.9724E+02 -2.0215E+00   1.9926E+02  0.000E+00  0.000E+00  0.000E+00  9.95002E+02  3.127E+00  4.535E+01  2.773E+00 -2.430E-01
   1    8    6     9     1    0.0000E+00  0.0000E+00   0.0000E+00  0.000E+00  0.000E+00  0.000E+00  1.07875E+03  0.000E+00  4.000E+00  0.000E+00  1.000E+00
   1    8    5     9     2    0.0000E+00  0.0000E+00   0.0000E+00  0.000E+00  0.000E+00  0.000E+00  1.07825E+03  0.000E+00  4.000E+00  0.000E+00  1.000E+00





UNSATURATED ZONE PACKAGE VOLUMETRIC BUDGET FOR  TIME STEP    30 STRESS PERIOD   19
  ------------------------------------------------------------------------------



     CUMULATIVE VOLUMES      L**3       RATES FOR THIS TIME STEP      L**3/T
     ------------------                 ------------------------

           IN:                                      IN:
           ---                                      ---
        INFILTRATION =   209573085.7063          INFILTRATION =           4.4075

          OUT:                                     OUT:
          ----                                     ----
              UZF ET =   153678711.9515                UZF ET =           4.4075
        UZF RECHARGE =      674797.3606          UZF RECHARGE =       0.0000E+00

            IN - OUT =    55219576.3942              IN - OUT =       0.0000E+00

          STORAGE:                                 STORAGE:
          --------                                 --------
      STORAGE CHANGE =    55220222.8207        STORAGE CHANGE =      -1.9836E-14

 PERCENT DISCREPANCY IS DIFFERENCE BETWEEN IN-OUT MINUS CHANGE IN STORAGE
 DIVIDED BY THE AVERAGE OF IN AND OUT TIMES 100

 PERCENT DISCREPANCY =          -0.00     PERCENT DISCREPANCY =           0.00






1
  VOLUMETRIC BUDGET FOR ENTIRE MODEL AT END OF TIME STEP   30, STRESS PERIOD  19
  ------------------------------------------------------------------------------

     CUMULATIVE VOLUMES      L**3       RATES FOR THIS TIME STEP      L**3/T
     ------------------                 ------------------------

           IN:                                      IN:
           ---                                      ---
               AG WELLS  =           0.0000                 AG WELLS  =           0.0000
        DIVERSION SEGMEN =      848802.5000          DIVERSION SEGMEN =           0.0000
    TS         GW IRRIGA =           0.0000      TS         GW IRRIGA =           0.0000
    TION         SW IRRI =           0.0000      TION         SW IRRI =           0.0000
    GATION      SYSTEM L =           0.0000      GATION      SYSTEM L =           0.0000
    OSSES GW      SYSTEM =           0.1856      OSSES GW      SYSTEM =           0.0000

                TOTAL IN =      848802.6875                  TOTAL IN =           0.0000

          OUT:                                     OUT:
          ----                                     ----
               AG WELLS  =           0.0000                 AG WELLS  =           0.0000
        DIVERSION SEGMEN =           0.0000          DIVERSION SEGMEN =           0.0000
    TS         GW IRRIGA =           0.0000      TS         GW IRRIGA =           0.0000
    TION         SW IRRI =      848819.6875      TION         SW IRRI =           0.0000
    GATION      SYSTEM L =           0.0000      GATION      SYSTEM L =           0.0000
    OSSES GW      SYSTEM =           0.0000      OSSES GW      SYSTEM =           0.0000

               TOTAL OUT =      848819.6875                 TOTAL OUT =           0.0000

                IN - OUT =         -17.0000                  IN - OUT =           0.0000

     PERCENT DISCREPANCY =          -0.00         PERCENT DISCREPANCY =           0.00



1
  VOLUMETRIC BUDGET FOR ENTIRE MODEL AT END OF TIME STEP   30, STRESS PERIOD  19
  ------------------------------------------------------------------------------

     CUMULATIVE VOLUMES      L**3       RATES FOR THIS TIME STEP      L**3/T
     ------------------                 ------------------------

           IN:                                      IN:
           ---                                      ---
             STORAGE     =    26519618.0000               STORAGE     =           0.3928
       CONSTANT HEAD     =           0.0000         CONSTANT HEAD     =           0.0000
     HEAD DEP BOUNDS     =    13549077.0000       HEAD DEP BOUNDS     =           0.2856
      STREAM LEAKAGE     =   573427648.0000        STREAM LEAKAGE     =          12.1129
        UZF RECHARGE     =      674797.2500          UZF RECHARGE     =           0.0000
               GW ET     =           0.0000                 GW ET     =           0.0000
     SURFACE LEAKAGE     =           0.0000       SURFACE LEAKAGE     =           0.0000
           AG WELLS      =           0.0000             AG WELLS      =           0.0000

                TOTAL IN =   614171136.0000                  TOTAL IN =          12.7913

          OUT:                                     OUT:
          ----                                     ----
             STORAGE     =    86707784.0000               STORAGE     =           1.3562
       CONSTANT HEAD     =           0.0000         CONSTANT HEAD     =           0.0000
     HEAD DEP BOUNDS     =    13882927.0000       HEAD DEP BOUNDS     =           0.2938
      STREAM LEAKAGE     =   504947456.0000        STREAM LEAKAGE     =          10.8763
        UZF RECHARGE     =           0.0000          UZF RECHARGE     =           0.0000
               GW ET     =     8646107.0000                 GW ET     =           0.2653
     SURFACE LEAKAGE     =           0.0000       SURFACE LEAKAGE     =           0.0000
           AG WELLS      =           0.0000             AG WELLS      =           0.0000

               TOTAL OUT =   614184256.0000                 TOTAL OUT =          12.7916

                IN - OUT =      -13120.0000                  IN - OUT =      -2.6798E-04

     PERCENT DISCREPANCY =          -0.00         PERCENT DISCREPANCY =          -0.00






         TIME SUMMARY AT END OF TIME STEP   30 IN STRESS PERIOD   19
                    SECONDS     MINUTES      HOURS       DAYS        YEARS
                    -----------------------------------------------------------
   TIME STEP LENGTH  87667.      1461.1      24.352      1.0147     2.77799E-03
 STRESS PERIOD TIME 2.63000E+06  43833.      730.56      30.440     8.33397E-02
         TOTAL TIME 4.74265E+07 7.90442E+05  13174.      548.92      1.5029    
1
1
                            STRESS PERIOD NO.   20, LENGTH =   2630000.    
                            -----------------------------------------------

                              NUMBER OF TIME STEPS =    30

                               MULTIPLIER FOR DELT =     1.000

                            INITIAL TIME STEP SIZE =   87666.66    

 REUSING NON-PARAMETER GHB CELLS FROM LAST STRESS PERIOD

      2 GHB CELLS

 REUSING STREAM SEGMENT DATA FROM LAST STRESS PERIOD



            AREAL INFILTRATION RATE
 READING ON UNIT   19 WITH FORMAT: (10F4.0)            

            1           2           3           4           5           6           7           8           9          10
 ........................................................................................................................
   1   1.2000E-09   0.000       0.000       0.000       0.000       0.000       0.000       0.000       0.000       0.000    
   2   2.1000E-09  2.0000E-09  8.0000E-10  8.5000E-09   0.000       0.000       0.000       0.000       0.000       0.000    
   3   5.0000E-10  1.1000E-09  8.8000E-09  5.5000E-09   0.000       0.000       0.000       0.000       0.000       0.000    
   4   8.5000E-09  1.1000E-09  1.1000E-09  1.1000E-09  2.0000E-09   0.000       0.000       0.000       0.000       0.000    
   5   8.5000E-09  1.1000E-09  1.1000E-09  1.1000E-09  1.1000E-09   0.000       0.000       0.000       0.000       0.000    
   6   8.5000E-09  5.2000E-09  2.1000E-09  1.1000E-09  1.5000E-09   0.000       0.000       0.000       0.000       0.000    
   7   8.5000E-09  5.2000E-09  2.1000E-09  1.2000E-09  2.0000E-09   0.000       0.000       0.000       0.000       0.000    
   8   5.0000E-10  5.2000E-09  2.1000E-09  1.2000E-09  5.0000E-09   0.000       0.000       0.000       0.000       0.000    
   9   5.0000E-10  5.2000E-09  2.1000E-09  1.2000E-09  5.0000E-09   0.000       0.000       0.000       0.000       0.000    
  10   5.0000E-10  5.2000E-09  2.1000E-09  1.2000E-09  5.8000E-09   0.000       0.000       0.000       0.000       0.000    
  11   1.0000E-10  1.1000E-09  1.1000E-09  1.2000E-09  5.0000E-09   0.000       0.000       0.000       0.000       0.000    
  12   1.1000E-09  1.1000E-09  1.1000E-09  1.1000E-09  2.0000E-09   0.000       0.000       0.000       0.000       0.000    
  13   1.1000E-09  2.2000E-09  2.2000E-09  2.1000E-09  1.0000E-09   0.000       0.000       0.000       0.000       0.000    
  14   2.0000E-10  5.5000E-09  5.5000E-09  5.2000E-09  1.0000E-09   0.000       0.000       0.000       0.000       0.000    
  15    0.000      8.8000E-09  8.8000E-09   0.000       0.000       0.000       0.000       0.000       0.000       0.000    

                  ET RATE =  4.000000E-07

 USING ET EXTINCTION DEPTH FROM PREVIOUS STRESS PERIOD. CURRENT PERIOD IS:      20

 USING EXTINCTION WATER CONTENT FROM PREVIOUS STRESS PERIOD. CURRENT PERIOD IS:      20

 USING AIR ENTRY PRESSURE FROM PREVIOUS STRESS PERIOD. CURRENT PERIOD IS:      20

 USING ROOT PRESSURE HEAD FROM PREVIOUS STRESS PERIOD. CURRENT PERIOD IS:      20

 USING ROOT ACTIVITY FROM PREVIOUS STRESS PERIOD. CURRENT PERIOD IS:      20

 PROCESSING AG STRESS PERIOD DATA

 READING AG STRESS PERIOD DATA

 READING IRRIGATION SEGMENT

 READING IRRIGATION WELL

 READING SUPPLEMENTAL WELL

 END PROCESSING AG STRESS PERIOD DATA OPTIONS
 
 SOLVING FOR HEAD 
                                                   Max.-Head-Change                         Max.-Flux-Residual
  Residual-Control   Outer-Iter.   Inner-Iter.     Column Row Layer    Maximum-Head-Change  Column Row Layer    Maximum-Flux-Residual          L2-NORM 
          0                 1           2             3   13     1      -0.3911219136E-02       3   13    1        -0.2941088038E+00      0.4736401428E+00
          0                 2           2             3   13     1       0.3741348131E-03       3   13    1         0.2892577432E-01      0.4682787251E-01
          0                 3           1             3   13     1      -0.2488816246E-04       3   13    1        -0.1978341188E-02      0.3228526807E-02

    ------------------------------------------------
       NWT REQUIRED            3 OUTER ITERATIONS 
       AND A TOTAL OF          5 INNER ITERATIONS.
    ------------------------------------------------

 OUTPUT CONTROL FOR STRESS PERIOD   20   TIME STEP    1
    PRINT BUDGET
    SAVE BUDGET
    SAVE BUDGET
    SAVE HEAD FOR ALL LAYERS
 UBDSV1 SAVING "         STORAGE" ON UNIT 102 AT TIME STEP  1, STRESS PERIOD  20
 UBDSV2 SAVING "   CONSTANT HEAD" ON UNIT 102 AT TIME STEP  1, STRESS PERIOD  20
 UBDSV1 SAVING "FLOW RIGHT FACE " ON UNIT 102 AT TIME STEP  1, STRESS PERIOD  20
 UBDSV1 SAVING "FLOW FRONT FACE " ON UNIT 102 AT TIME STEP  1, STRESS PERIOD  20

  HEAD DEP BOUNDS   PERIOD   20   STEP     1
 BOUNDARY      1   LAYER   1   ROW    13   COL     1   RATE   -0.293766    
 BOUNDARY      2   LAYER   1   ROW    14   COL     9   RATE    0.285614    



 STREAM LISTING     PERIOD     20   STEP        1

 LAYER ROW COL. STREAM  RCH.  FLOW INTO     FLOW TO   FLOW OUT OF   OVRLND.     DIRECT     STREAM       STREAM     STREAM     STREAM   STREAMBED  STREAMBED
                SEG.NO.  NO.  STRM. RCH.    AQUIFER    STRM. RCH.    RUNOFF     PRECIP       ET          HEAD       DEPTH      WIDTH   CONDCTNC.   GRADIENT

   1    1    1     1     1    4.0501E+01  3.0566E-01   4.0195E+01  0.000E+00  0.000E+00  0.000E+00  1.09438E+03  1.335E+00  1.567E+01  7.051E-02  1.445E+00
   1    2    2     1     2    4.0195E+01  4.7341E-01   3.9722E+01  0.000E+00  0.000E+00  0.000E+00  1.08939E+03  1.332E+00  1.561E+01  1.093E-01  1.444E+00
   1    3    3     1     3    3.9722E+01  4.0378E-01   3.9318E+01  0.000E+00  0.000E+00  0.000E+00  1.08375E+03  1.329E+00  1.555E+01  9.328E-02  1.443E+00
   1    3    4     1     4    3.9318E+01  3.7185E-01   3.8946E+01  0.000E+00  0.000E+00  0.000E+00  1.07873E+03  1.326E+00  1.549E+01  8.596E-02  1.442E+00
   1    4    5     2     1    3.6946E+01  3.5272E-01   3.6593E+01  0.000E+00  0.000E+00  0.000E+00  1.07346E+03  1.522E+00  1.200E+01  7.800E-02  1.507E+00
   1    5    6     2     2    3.6593E+01  2.7086E-01   3.6322E+01  0.000E+00  0.000E+00  0.000E+00  1.06802E+03  1.514E+00  1.200E+01  6.000E-02  1.505E+00
   1    6    6     2     3    3.6322E+01  2.7045E-01   3.6052E+01  0.000E+00  0.000E+00  0.000E+00  1.06330E+03  1.508E+00  1.200E+01  6.000E-02  1.503E+00
   1    7    6     2     4    3.6052E+01  2.7005E-01   3.5782E+01  0.000E+00  0.000E+00  0.000E+00  1.05858E+03  1.501E+00  1.200E+01  6.000E-02  1.500E+00
   1    8    6     2     5    3.5782E+01  2.6964E-01   3.5512E+01  0.000E+00  0.000E+00  0.000E+00  1.05385E+03  1.494E+00  1.200E+01  6.000E-02  1.498E+00
   1    3    5     3     1    2.0000E+00  2.8252E-01   1.7175E+00  0.000E+00  0.000E+00  0.000E+00  1.07555E+03  1.909E+00  9.636E+00  7.227E-02  1.955E+00
   1    3    6     3     2    1.7175E+00  2.4905E-01   1.4684E+00  0.000E+00  0.000E+00  0.000E+00  1.07264E+03  1.727E+00  8.909E+00  6.682E-02  1.864E+00
   1    3    7     3     3    1.4684E+00  1.9718E-01   1.2712E+00  0.000E+00  0.000E+00  0.000E+00  1.06987E+03  1.555E+00  8.218E+00  5.547E-02  1.777E+00
   1    4    8     3     4    1.2712E+00  2.2567E-01   1.0456E+00  0.000E+00  0.000E+00  0.000E+00  1.06682E+03  1.364E+00  7.455E+00  6.709E-02  1.682E+00
   1    5    8     3     5    1.0456E+00  1.5790E-01   8.8768E-01  0.000E+00  0.000E+00  0.000E+00  1.06362E+03  1.164E+00  6.655E+00  4.991E-02  1.582E+00
   1    6    8     3     6    8.8768E-01  5.5980E-02   8.3170E-01  0.000E+00  0.000E+00  0.000E+00  1.06158E+03  1.036E+00  6.145E+00  1.844E-02  1.518E+00
   1    5   10     4     1    1.0000E+01  9.0919E-02   9.9091E+00  0.000E+00  0.000E+00  0.000E+00  1.07836E+03  6.368E-01  1.000E+01  2.500E-02  1.212E+00
   1    5    9     4     2    9.9091E+00  1.8158E-01   9.7275E+00  0.000E+00  0.000E+00  0.000E+00  1.07154E+03  6.315E-01  1.000E+01  5.000E-02  1.211E+00
   1    6    8     4     3    9.7275E+00  1.2689E-01   9.6006E+00  0.000E+00  0.000E+00  0.000E+00  1.06381E+03  6.256E-01  1.000E+01  3.500E-02  1.209E+00
   1    6    8     5     1    1.0432E+01  2.2686E-01   1.0205E+01  0.000E+00  0.000E+00  0.000E+00  1.05868E+03  6.790E-01  1.542E+01  6.166E-02  1.226E+00
   1    7    7     5     2    1.0205E+01  2.7894E-01   9.9265E+00  0.000E+00  0.000E+00  0.000E+00  1.05417E+03  6.732E-01  1.519E+01  7.594E-02  1.224E+00
   1    8    7     5     3    9.9265E+00  1.9221E-01   9.7343E+00  0.000E+00  0.000E+00  0.000E+00  1.04992E+03  6.676E-01  1.497E+01  5.241E-02  1.223E+00
   1    8    6     5     4    9.7343E+00  1.3577E-01   9.5985E+00  0.000E+00  0.000E+00  0.000E+00  1.04691E+03  6.637E-01  1.482E+01  3.706E-02  1.221E+00
   1    9    6     6     1    4.5111E+01  2.8420E-01   4.4827E+01  0.000E+00  0.000E+00  0.000E+00  1.04446E+03  1.737E+00  1.200E+01  6.000E-02  1.579E+00
   1   10    7     6     2    4.4827E+01  2.8380E-01   4.4543E+01  0.000E+00  0.000E+00  0.000E+00  1.03991E+03  1.730E+00  1.200E+01  6.000E-02  1.577E+00
   1   11    7     6     3    4.4543E+01  2.8341E-01   4.4259E+01  0.000E+00  0.000E+00  0.000E+00  1.03536E+03  1.723E+00  1.200E+01  6.000E-02  1.574E+00
   1   12    7     6     4    4.4259E+01  2.8301E-01   4.3976E+01  0.000E+00  0.000E+00  0.000E+00  1.03081E+03  1.717E+00  1.200E+01  6.000E-02  1.572E+00
   1   13    7     6     5    4.3976E+01  1.0127E-02   4.3966E+01  0.000E+00  0.000E+00  0.000E+00  1.02762E+03  1.713E+00  1.200E+01  2.400E-02  1.407E-01
   1   14    9     7     1    1.5000E+02  1.3337E+00   1.4867E+02  0.000E+00  0.000E+00  0.000E+00  1.03987E+03  2.288E+00  5.529E+01  5.593E-01  7.949E-01
   1   13    8     7     2    1.4867E+02  1.8065E+00   1.4686E+02  0.000E+00  0.000E+00  0.000E+00  1.03478E+03  2.279E+00  5.526E+01  6.148E-01  9.795E-01
   1   13    7     7     3    1.4686E+02  1.3904E+00   1.4547E+02  0.000E+00  0.000E+00  0.000E+00  1.02969E+03  2.271E+00  5.522E+01  5.585E-01  8.299E-01
   1   13    6     8     1    1.8944E+02  9.1197E-01   1.8852E+02  0.000E+00  0.000E+00  0.000E+00  1.02495E+03  3.072E+00  4.454E+01  4.539E-01  6.698E-01
   1   13    5     8     2    1.8852E+02  1.3609E-01   1.8839E+02  0.000E+00  0.000E+00  0.000E+00  1.01869E+03  3.069E+00  4.449E+01  4.534E-01  1.001E-01
   1   13    4     8     3    1.8839E+02 -2.5545E+00   1.9094E+02  0.000E+00  0.000E+00  0.000E+00  1.01245E+03  3.076E+00  4.460E+01  4.545E+00 -1.873E-01
   1   13    3     8     4    1.9094E+02 -3.6432E+00   1.9459E+02  0.000E+00  0.000E+00  0.000E+00  1.00622E+03  3.095E+00  4.487E+01  4.573E+00 -2.656E-01
   1   13    2     8     5    1.9459E+02 -2.6237E+00   1.9721E+02  0.000E+00  0.000E+00  0.000E+00  9.99988E+02  3.113E+00  4.514E+01  4.600E+00 -1.901E-01
   1   13    1     8     6    1.9721E+02 -2.0197E+00   1.9923E+02  0.000E+00  0.000E+00  0.000E+00  9.95002E+02  3.127E+00  4.534E+01  2.772E+00 -2.428E-01
   1    8    6     9     1    0.0000E+00  0.0000E+00   0.0000E+00  0.000E+00  0.000E+00  0.000E+00  1.07875E+03  0.000E+00  4.000E+00  0.000E+00  1.000E+00
   1    8    5     9     2    0.0000E+00  0.0000E+00   0.0000E+00  0.000E+00  0.000E+00  0.000E+00  1.07825E+03  0.000E+00  4.000E+00  0.000E+00  1.000E+00



 UBDSV3 SAVING "           GW ET" ON UNIT  61 AT TIME STEP  1, STRESS PERIOD  20
 UBDSV3 SAVING "    UZF RECHARGE" ON UNIT  61 AT TIME STEP  1, STRESS PERIOD  20
 UBDSV3 SAVING " SURFACE LEAKAGE" ON UNIT  61 AT TIME STEP  1, STRESS PERIOD  20
 UBDSV3 SAVING "       HORT+DUNN" ON UNIT  61 AT TIME STEP  1, STRESS PERIOD  20
 UBDSV3 SAVING "  STORAGE CHANGE" ON UNIT  61 AT TIME STEP  1, STRESS PERIOD  20


UNSATURATED ZONE PACKAGE VOLUMETRIC BUDGET FOR  TIME STEP     1 STRESS PERIOD   20
  ------------------------------------------------------------------------------



     CUMULATIVE VOLUMES      L**3       RATES FOR THIS TIME STEP      L**3/T
     ------------------                 ------------------------

           IN:                                      IN:
           ---                                      ---
        INFILTRATION =   209959476.5249          INFILTRATION =           4.4075

          OUT:                                     OUT:
          ----                                     ----
              UZF ET =   154065102.7701                UZF ET =           4.4075
        UZF RECHARGE =      674797.3606          UZF RECHARGE =       0.0000E+00

            IN - OUT =    55219576.3942              IN - OUT =       0.0000E+00

          STORAGE:                                 STORAGE:
          --------                                 --------
      STORAGE CHANGE =    55220222.8207        STORAGE CHANGE =       2.3488E-14

 PERCENT DISCREPANCY IS DIFFERENCE BETWEEN IN-OUT MINUS CHANGE IN STORAGE
 DIVIDED BY THE AVERAGE OF IN AND OUT TIMES 100

 PERCENT DISCREPANCY =          -0.00     PERCENT DISCREPANCY =           0.00






 

            AG WELLS      PERIOD   20   STEP   1
 AG WELL      1   LAYER   1   ROW     6   COL     4   RATE     0.00000    
 AG WELL      2   LAYER   1   ROW     6   COL     5   RATE     0.00000    
 AG WELL      3   LAYER   1   ROW     7   COL     4   RATE     0.00000    
 AG WELL      4   LAYER   1   ROW     7   COL     5   RATE     0.00000    
 AG WELL      5   LAYER   1   ROW     8   COL     4   RATE     0.00000    
 AG WELL      6   LAYER   1   ROW     8   COL     5   RATE     0.00000    
 
 

   DIVERSION SEGMENTS     PERIOD   20   STEP   1
 SEGMENT      9   RATE     0.00000    
 
 

        SW IRRIGATION     PERIOD   20   STEP   1
 SEGMENT      9   ROW     6   COL     4   RATE     0.00000    
 SEGMENT      9   ROW     6   COL     5   RATE     0.00000    
 SEGMENT      9   ROW     7   COL     4   RATE     0.00000    
 SEGMENT      9   ROW     7   COL     5   RATE     0.00000    
 SEGMENT      9   ROW     8   COL     4   RATE     0.00000    
 SEGMENT      9   ROW     8   COL     5   RATE     0.00000    
 
 

        GW IRRIGATION     PERIOD   20   STEP   1
 AG WELL      1   ROW     6   COL     4   RATE     0.00000    
 AG WELL      2   ROW     6   COL     5   RATE     0.00000    
 AG WELL      3   ROW     7   COL     4   RATE     0.00000    
 AG WELL      4   ROW     7   COL     5   RATE     0.00000    
 AG WELL      5   ROW     8   COL     4   RATE     0.00000    
 AG WELL      6   ROW     8   COL     5   RATE     0.00000    
 
1
  VOLUMETRIC BUDGET FOR ENTIRE MODEL AT END OF TIME STEP    1, STRESS PERIOD  20
  ------------------------------------------------------------------------------

     CUMULATIVE VOLUMES      L**3       RATES FOR THIS TIME STEP      L**3/T
     ------------------                 ------------------------

           IN:                                      IN:
           ---                                      ---
               AG WELLS  =           0.0000                 AG WELLS  =           0.0000
        DIVERSION SEGMEN =      848802.5000          DIVERSION SEGMEN =           0.0000
    TS         GW IRRIGA =           0.0000      TS         GW IRRIGA =           0.0000
    TION         SW IRRI =           0.0000      TION         SW IRRI =           0.0000
    GATION      SYSTEM L =           0.0000      GATION      SYSTEM L =           0.0000
    OSSES GW      SYSTEM =           0.1856      OSSES GW      SYSTEM =           0.0000

                TOTAL IN =      848802.6875                  TOTAL IN =           0.0000

          OUT:                                     OUT:
          ----                                     ----
               AG WELLS  =           0.0000                 AG WELLS  =           0.0000
        DIVERSION SEGMEN =           0.0000          DIVERSION SEGMEN =           0.0000
    TS         GW IRRIGA =           0.0000      TS         GW IRRIGA =           0.0000
    TION         SW IRRI =      848819.6875      TION         SW IRRI =           0.0000
    GATION      SYSTEM L =           0.0000      GATION      SYSTEM L =           0.0000
    OSSES GW      SYSTEM =           0.0000      OSSES GW      SYSTEM =           0.0000

               TOTAL OUT =      848819.6875                 TOTAL OUT =           0.0000

                IN - OUT =         -17.0000                  IN - OUT =           0.0000

     PERCENT DISCREPANCY =          -0.00         PERCENT DISCREPANCY =           0.00




 HEAD WILL BE SAVED ON UNIT   62 AT END OF TIME STEP    1, STRESS PERIOD   20
1
  VOLUMETRIC BUDGET FOR ENTIRE MODEL AT END OF TIME STEP    1, STRESS PERIOD  20
  ------------------------------------------------------------------------------

     CUMULATIVE VOLUMES      L**3       RATES FOR THIS TIME STEP      L**3/T
     ------------------                 ------------------------

           IN:                                      IN:
           ---                                      ---
             STORAGE     =    26578668.0000               STORAGE     =           0.6736
       CONSTANT HEAD     =           0.0000         CONSTANT HEAD     =           0.0000
     HEAD DEP BOUNDS     =    13574116.0000       HEAD DEP BOUNDS     =           0.2856
      STREAM LEAKAGE     =   574489536.0000        STREAM LEAKAGE     =          12.1131
        UZF RECHARGE     =      674797.2500          UZF RECHARGE     =           0.0000
               GW ET     =           0.0000                 GW ET     =           0.0000
     SURFACE LEAKAGE     =           0.0000       SURFACE LEAKAGE     =           0.0000
           AG WELLS      =           0.0000             AG WELLS      =           0.0000

                TOTAL IN =   615317120.0000                  TOTAL IN =          13.0723

          OUT:                                     OUT:
          ----                                     ----
             STORAGE     =    86826504.0000               STORAGE     =           1.3542
       CONSTANT HEAD     =           0.0000         CONSTANT HEAD     =           0.0000
     HEAD DEP BOUNDS     =    13908680.0000       HEAD DEP BOUNDS     =           0.2938
      STREAM LEAKAGE     =   505897856.0000        STREAM LEAKAGE     =          10.8410
        UZF RECHARGE     =           0.0000          UZF RECHARGE     =           0.0000
               GW ET     =     8697259.0000                 GW ET     =           0.5835
     SURFACE LEAKAGE     =           0.0000       SURFACE LEAKAGE     =           0.0000
           AG WELLS      =           0.0000             AG WELLS      =           0.0000

               TOTAL OUT =   615330304.0000                 TOTAL OUT =          13.0724

                IN - OUT =      -13184.0000                  IN - OUT =      -1.5640E-04

     PERCENT DISCREPANCY =          -0.00         PERCENT DISCREPANCY =          -0.00






         TIME SUMMARY AT END OF TIME STEP    1 IN STRESS PERIOD   20
                    SECONDS     MINUTES      HOURS       DAYS        YEARS
                    -----------------------------------------------------------
   TIME STEP LENGTH  87667.      1461.1      24.352      1.0147     2.77799E-03
 STRESS PERIOD TIME  87667.      1461.1      24.352      1.0147     2.77799E-03
         TOTAL TIME 4.75142E+07 7.91903E+05  13198.      549.93      1.5056    
1
 
 SOLVING FOR HEAD 
                                                   Max.-Head-Change                         Max.-Flux-Residual
  Residual-Control   Outer-Iter.   Inner-Iter.     Column Row Layer    Maximum-Head-Change  Column Row Layer    Maximum-Flux-Residual          L2-NORM 
          0                 1           2             3   13     1      -0.2706491687E-02       3   13    1        -0.2033405382E+00      0.3823393063E+00
          0                 2           2             3   13     1       0.2588901859E-03       3   13    1         0.1999820118E-01      0.3787660694E-01
          0                 3           1             3   13     1      -0.1721816607E-04       3   13    1        -0.1367451739E-02      0.2618012237E-02

    ------------------------------------------------
       NWT REQUIRED            3 OUTER ITERATIONS 
       AND A TOTAL OF          5 INNER ITERATIONS.
    ------------------------------------------------

 NO OUTPUT CONTROL FOR STRESS PERIOD   20   TIME STEP    2
 
 SOLVING FOR HEAD 
                                                   Max.-Head-Change                         Max.-Flux-Residual
  Residual-Control   Outer-Iter.   Inner-Iter.     Column Row Layer    Maximum-Head-Change  Column Row Layer    Maximum-Flux-Residual          L2-NORM 
          0                 1           2             1    1     1       0.2580996770E-02       3   13    1        -0.1407045353E+00      0.3295746098E+00
          0                 2           2             1    1     1      -0.2510607134E-03       3   13    1         0.1383700184E-01      0.3272700531E-01
          0                 3           1             1    1     1       0.1709630300E-04       3   13    1        -0.9463200804E-03      0.2269443404E-02

    ------------------------------------------------
       NWT REQUIRED            3 OUTER ITERATIONS 
       AND A TOTAL OF          5 INNER ITERATIONS.
    ------------------------------------------------

 NO OUTPUT CONTROL FOR STRESS PERIOD   20   TIME STEP    3
 
 SOLVING FOR HEAD 
                                                   Max.-Head-Change                         Max.-Flux-Residual
  Residual-Control   Outer-Iter.   Inner-Iter.     Column Row Layer    Maximum-Head-Change  Column Row Layer    Maximum-Flux-Residual          L2-NORM 
          0                 1           2             1    1     1       0.2579581762E-02       1    1    1         0.1338452169E+00      0.3006110670E+00
          0                 2           2             1    1     1      -0.2509230712E-03       1    1    1        -0.1338452892E-01      0.2991425229E-01
          0                 3           1             1    1     1       0.1708692979E-04       1    1    1         0.9369173538E-03      0.2080217245E-02

    ------------------------------------------------
       NWT REQUIRED            3 OUTER ITERATIONS 
       AND A TOTAL OF          5 INNER ITERATIONS.
    ------------------------------------------------

 NO OUTPUT CONTROL FOR STRESS PERIOD   20   TIME STEP    4
 
 SOLVING FOR HEAD 
                                                   Max.-Head-Change                         Max.-Flux-Residual
  Residual-Control   Outer-Iter.   Inner-Iter.     Column Row Layer    Maximum-Head-Change  Column Row Layer    Maximum-Flux-Residual          L2-NORM 
          0                 1           2             1    1     1       0.2578170538E-02       1    1    1         0.1337718513E+00      0.2851742124E+00
          0                 2           2             1    1     1      -0.2507857973E-03       1    1    1        -0.1337719233E-01      0.2842311241E-01
          0                 3           1             1    1     1       0.1707758215E-04       1    1    1         0.9364038070E-03      0.1979744702E-02

    ------------------------------------------------
       NWT REQUIRED            3 OUTER ITERATIONS 
       AND A TOTAL OF          5 INNER ITERATIONS.
    ------------------------------------------------

 NO OUTPUT CONTROL FOR STRESS PERIOD   20   TIME STEP    5
 
 SOLVING FOR HEAD 
                                                   Max.-Head-Change                         Max.-Flux-Residual
  Residual-Control   Outer-Iter.   Inner-Iter.     Column Row Layer    Maximum-Head-Change  Column Row Layer    Maximum-Flux-Residual          L2-NORM 
          0                 1           2             1    1     1       0.2576785776E-02       1    1    1         0.1336998600E+00      0.2769430789E+00
          0                 2           2             1    1     1      -0.2506510975E-03       1    1    1        -0.1336999318E-01      0.2763350015E-01
          0                 3           1             1    1     1       0.1706840964E-04       1    1    1         0.9358998625E-03      0.1928789195E-02

    ------------------------------------------------
       NWT REQUIRED            3 OUTER ITERATIONS 
       AND A TOTAL OF          5 INNER ITERATIONS.
    ------------------------------------------------

 NO OUTPUT CONTROL FOR STRESS PERIOD   20   TIME STEP    6
 
 SOLVING FOR HEAD 
                                                   Max.-Head-Change                         Max.-Flux-Residual
  Residual-Control   Outer-Iter.   Inner-Iter.     Column Row Layer    Maximum-Head-Change  Column Row Layer    Maximum-Flux-Residual          L2-NORM 
          0                 1           2             1    1     1       0.2575382040E-02       1    1    1         0.1336268847E+00      0.2723947114E+00
          0                 2           2             1    1     1      -0.2505145520E-03       1    1    1        -0.1336269563E-01      0.2719770265E-01
          0                 3           1             1    1     1       0.1705911122E-04       1    1    1         0.9353890357E-03      0.1900025021E-02

    ------------------------------------------------
       NWT REQUIRED            3 OUTER ITERATIONS 
       AND A TOTAL OF          5 INNER ITERATIONS.
    ------------------------------------------------

 NO OUTPUT CONTROL FOR STRESS PERIOD   20   TIME STEP    7
 
 SOLVING FOR HEAD 
                                                   Max.-Head-Change                         Max.-Flux-Residual
  Residual-Control   Outer-Iter.   Inner-Iter.     Column Row Layer    Maximum-Head-Change  Column Row Layer    Maximum-Flux-Residual          L2-NORM 
          0                 1           2             1    1     1       0.2573982064E-02       1    1    1         0.1335541036E+00      0.2697173973E+00
          0                 2           2             1    1     1      -0.2503783720E-03       1    1    1        -0.1335541749E-01      0.2694238522E-01
          0                 3           1             1    1     1       0.1704983789E-04       1    1    1         0.9348795557E-03      0.1883218249E-02

    ------------------------------------------------
       NWT REQUIRED            3 OUTER ITERATIONS 
       AND A TOTAL OF          5 INNER ITERATIONS.
    ------------------------------------------------

 NO OUTPUT CONTROL FOR STRESS PERIOD   20   TIME STEP    8
 
 SOLVING FOR HEAD 
                                                   Max.-Head-Change                         Max.-Flux-Residual
  Residual-Control   Outer-Iter.   Inner-Iter.     Column Row Layer    Maximum-Head-Change  Column Row Layer    Maximum-Flux-Residual          L2-NORM 
          0                 1           2             1    1     1       0.2572585830E-02       1    1    1         0.1334815174E+00      0.2679862555E+00
          0                 2           2             1    1     1      -0.2502425567E-03       1    1    1        -0.1334815888E-01      0.2677739713E-01
          0                 3           1             1    1     1       0.1704058964E-04       1    1    1         0.9343714621E-03      0.1872385850E-02

    ------------------------------------------------
       NWT REQUIRED            3 OUTER ITERATIONS 
       AND A TOTAL OF          5 INNER ITERATIONS.
    ------------------------------------------------

 NO OUTPUT CONTROL FOR STRESS PERIOD   20   TIME STEP    9
 
 SOLVING FOR HEAD 
                                                   Max.-Head-Change                         Max.-Flux-Residual
  Residual-Control   Outer-Iter.   Inner-Iter.     Column Row Layer    Maximum-Head-Change  Column Row Layer    Maximum-Flux-Residual          L2-NORM 
          0                 1           2             1    1     1       0.2571193334E-02       1    1    1         0.1334091253E+00      0.2667623266E+00
          0                 2           2             1    1     1      -0.2501071043E-03       1    1    1        -0.1334091965E-01      0.2666004290E-01
          0                 3           1             1    1     1       0.1703136530E-04       1    1    1         0.9338646998E-03      0.1864603210E-02

    ------------------------------------------------
       NWT REQUIRED            3 OUTER ITERATIONS 
       AND A TOTAL OF          5 INNER ITERATIONS.
    ------------------------------------------------

 NO OUTPUT CONTROL FOR STRESS PERIOD   20   TIME STEP   10
 
 SOLVING FOR HEAD 
                                                   Max.-Head-Change                         Max.-Flux-Residual
  Residual-Control   Outer-Iter.   Inner-Iter.     Column Row Layer    Maximum-Head-Change  Column Row Layer    Maximum-Flux-Residual          L2-NORM 
          0                 1           2             1    1     1       0.2569804540E-02       1    1    1         0.1333369269E+00      0.2658146615E+00
          0                 2           2             1    1     1      -0.2499720120E-03       1    1    1        -0.1333369979E-01      0.2656767871E-01
          0                 3           1             1    1     1       0.1702216605E-04       1    1    1         0.9333593080E-03      0.1858440068E-02

    ------------------------------------------------
       NWT REQUIRED            3 OUTER ITERATIONS 
       AND A TOTAL OF          5 INNER ITERATIONS.
    ------------------------------------------------

 NO OUTPUT CONTROL FOR STRESS PERIOD   20   TIME STEP   11
 
 SOLVING FOR HEAD 
                                                   Max.-Head-Change                         Max.-Flux-Residual
  Residual-Control   Outer-Iter.   Inner-Iter.     Column Row Layer    Maximum-Head-Change  Column Row Layer    Maximum-Flux-Residual          L2-NORM 
          0                 1           2             1    1     1       0.2568442152E-02       1    1    1         0.1332660991E+00      0.2650392972E+00
          0                 2           2             1    1     1      -0.2498394889E-03       1    1    1        -0.1332661698E-01      0.2649366126E-01
          0                 3           1             1    1     1       0.1701314217E-04       1    1    1         0.9328635321E-03      0.1853549580E-02

    ------------------------------------------------
       NWT REQUIRED            3 OUTER ITERATIONS 
       AND A TOTAL OF          5 INNER ITERATIONS.
    ------------------------------------------------

 NO OUTPUT CONTROL FOR STRESS PERIOD   20   TIME STEP   12
 
 SOLVING FOR HEAD 
                                                   Max.-Head-Change                         Max.-Flux-Residual
  Residual-Control   Outer-Iter.   Inner-Iter.     Column Row Layer    Maximum-Head-Change  Column Row Layer    Maximum-Flux-Residual          L2-NORM 
          0                 1           2             1    1     1       0.2567060733E-02       1    1    1         0.1331942833E+00      0.2643692675E+00
          0                 2           2             1    1     1      -0.2497051138E-03       1    1    1        -0.1331943538E-01      0.2642851106E-01
          0                 3           1             1    1     1       0.1700399167E-04       1    1    1         0.9323608143E-03      0.1849135609E-02

    ------------------------------------------------
       NWT REQUIRED            3 OUTER ITERATIONS 
       AND A TOTAL OF          5 INNER ITERATIONS.
    ------------------------------------------------

 NO OUTPUT CONTROL FOR STRESS PERIOD   20   TIME STEP   13
 
 SOLVING FOR HEAD 
                                                   Max.-Head-Change                         Max.-Flux-Residual
  Residual-Control   Outer-Iter.   Inner-Iter.     Column Row Layer    Maximum-Head-Change  Column Row Layer    Maximum-Flux-Residual          L2-NORM 
          0                 1           2             1    1     1       0.2565683008E-02       1    1    1         0.1331226593E+00      0.2637807995E+00
          0                 2           2             1    1     1      -0.2495710986E-03       1    1    1        -0.1331227296E-01      0.2637116639E-01
          0                 3           1             1    1     1       0.1699486555E-04       1    1    1         0.9318594384E-03      0.1845341397E-02

    ------------------------------------------------
       NWT REQUIRED            3 OUTER ITERATIONS 
       AND A TOTAL OF          5 INNER ITERATIONS.
    ------------------------------------------------

 NO OUTPUT CONTROL FOR STRESS PERIOD   20   TIME STEP   14
 
 SOLVING FOR HEAD 
                                                   Max.-Head-Change                         Max.-Flux-Residual
  Residual-Control   Outer-Iter.   Inner-Iter.     Column Row Layer    Maximum-Head-Change  Column Row Layer    Maximum-Flux-Residual          L2-NORM 
          0                 1           2             1    1     1       0.2564308967E-02       1    1    1         0.1330512269E+00      0.2632490710E+00
          0                 2           2             1    1     1      -0.2494374412E-03       1    1    1        -0.1330512968E-01      0.2631938793E-01
          0                 3           1             1    1     1       0.1698576404E-04       1    1    1         0.9313594103E-03      0.1841776995E-02

    ------------------------------------------------
       NWT REQUIRED            3 OUTER ITERATIONS 
       AND A TOTAL OF          5 INNER ITERATIONS.
    ------------------------------------------------

 NO OUTPUT CONTROL FOR STRESS PERIOD   20   TIME STEP   15
 
 SOLVING FOR HEAD 
                                                   Max.-Head-Change                         Max.-Flux-Residual
  Residual-Control   Outer-Iter.   Inner-Iter.     Column Row Layer    Maximum-Head-Change  Column Row Layer    Maximum-Flux-Residual          L2-NORM 
          0                 1           2             1    1     1       0.2562938591E-02       1    1    1         0.1329799854E+00      0.2627695731E+00
          0                 2           2             1    1     1      -0.2493041410E-03       1    1    1        -0.1329800553E-01      0.2627205338E-01
          0                 3           1             1    1     1       0.1697668691E-04       1    1    1         0.9308607306E-03      0.1838595440E-02

    ------------------------------------------------
       NWT REQUIRED            3 OUTER ITERATIONS 
       AND A TOTAL OF          5 INNER ITERATIONS.
    ------------------------------------------------

 NO OUTPUT CONTROL FOR STRESS PERIOD   20   TIME STEP   16
 
 SOLVING FOR HEAD 
                                                   Max.-Head-Change                         Max.-Flux-Residual
  Residual-Control   Outer-Iter.   Inner-Iter.     Column Row Layer    Maximum-Head-Change  Column Row Layer    Maximum-Flux-Residual          L2-NORM 
          0                 1           2             1    1     1       0.2561571877E-02       1    1    1         0.1329089340E+00      0.2623298438E+00
          0                 2           2             1    1     1      -0.2491711965E-03       1    1    1        -0.1329090036E-01      0.2622886797E-01
          0                 3           1             1    1     1       0.1696763368E-04       1    1    1         0.9303633600E-03      0.1835625420E-02

    ------------------------------------------------
       NWT REQUIRED            3 OUTER ITERATIONS 
       AND A TOTAL OF          5 INNER ITERATIONS.
    ------------------------------------------------

 NO OUTPUT CONTROL FOR STRESS PERIOD   20   TIME STEP   17
 
 SOLVING FOR HEAD 
                                                   Max.-Head-Change                         Max.-Flux-Residual
  Residual-Control   Outer-Iter.   Inner-Iter.     Column Row Layer    Maximum-Head-Change  Column Row Layer    Maximum-Flux-Residual          L2-NORM 
          0                 1           2             1    1     1       0.2560208789E-02       1    1    1         0.1328380725E+00      0.2619247516E+00
          0                 2           2             1    1     1      -0.2490386053E-03       1    1    1        -0.1328381420E-01      0.2618881948E-01
          0                 3           1             1    1     1       0.1695860507E-04       1    1    1         0.9298673384E-03      0.1832873571E-02

    ------------------------------------------------
       NWT REQUIRED            3 OUTER ITERATIONS 
       AND A TOTAL OF          5 INNER ITERATIONS.
    ------------------------------------------------

 NO OUTPUT CONTROL FOR STRESS PERIOD   20   TIME STEP   18
 
 SOLVING FOR HEAD 
                                                   Max.-Head-Change                         Max.-Flux-Residual
  Residual-Control   Outer-Iter.   Inner-Iter.     Column Row Layer    Maximum-Head-Change  Column Row Layer    Maximum-Flux-Residual          L2-NORM 
          0                 1           2             1    1     1       0.2558849357E-02       1    1    1         0.1327673989E+00      0.2615474358E+00
          0                 2           2             1    1     1      -0.2489063690E-03       1    1    1        -0.1327674681E-01      0.2615166221E-01
          0                 3           1             1    1     1       0.1694960013E-04       1    1    1         0.9293726116E-03      0.1830341818E-02

    ------------------------------------------------
       NWT REQUIRED            3 OUTER ITERATIONS 
       AND A TOTAL OF          5 INNER ITERATIONS.
    ------------------------------------------------

 NO OUTPUT CONTROL FOR STRESS PERIOD   20   TIME STEP   19
 
 SOLVING FOR HEAD 
                                                   Max.-Head-Change                         Max.-Flux-Residual
  Residual-Control   Outer-Iter.   Inner-Iter.     Column Row Layer    Maximum-Head-Change  Column Row Layer    Maximum-Flux-Residual          L2-NORM 
          0                 1           2             1    1     1       0.2557493530E-02       1    1    1         0.1326969149E+00      0.2612004271E+00
          0                 2           2             1    1     1      -0.2487744837E-03       1    1    1        -0.1326969841E-01      0.2611725940E-01
          0                 3           1             1    1     1       0.1694061909E-04       1    1    1         0.9288792134E-03      0.1827926871E-02

    ------------------------------------------------
       NWT REQUIRED            3 OUTER ITERATIONS 
       AND A TOTAL OF          5 INNER ITERATIONS.
    ------------------------------------------------

 NO OUTPUT CONTROL FOR STRESS PERIOD   20   TIME STEP   20
 
 SOLVING FOR HEAD 
                                                   Max.-Head-Change                         Max.-Flux-Residual
  Residual-Control   Outer-Iter.   Inner-Iter.     Column Row Layer    Maximum-Head-Change  Column Row Layer    Maximum-Flux-Residual          L2-NORM 
          0                 1           2             1    1     1       0.2556141320E-02       1    1    1         0.1326266178E+00      0.2608808752E+00
          0                 2           2             1    1     1      -0.2486429500E-03       1    1    1        -0.1326266866E-01      0.2608577468E-01
          0                 3           1             1    1     1       0.1693166219E-04       1    1    1         0.9283871353E-03      0.1825809186E-02

    ------------------------------------------------
       NWT REQUIRED            3 OUTER ITERATIONS 
       AND A TOTAL OF          5 INNER ITERATIONS.
    ------------------------------------------------

 NO OUTPUT CONTROL FOR STRESS PERIOD   20   TIME STEP   21
 
 SOLVING FOR HEAD 
                                                   Max.-Head-Change                         Max.-Flux-Residual
  Residual-Control   Outer-Iter.   Inner-Iter.     Column Row Layer    Maximum-Head-Change  Column Row Layer    Maximum-Flux-Residual          L2-NORM 
          0                 1           2             1    1     1       0.2554792709E-02       1    1    1         0.1325565083E+00      0.2605689941E+00
          0                 2           2             1    1     1      -0.2485117667E-03       1    1    1        -0.1325565770E-01      0.2605485904E-01
          0                 3           1             1    1     1       0.1692272896E-04       1    1    1         0.9278963693E-03      0.1823689014E-02

    ------------------------------------------------
       NWT REQUIRED            3 OUTER ITERATIONS 
       AND A TOTAL OF          5 INNER ITERATIONS.
    ------------------------------------------------

 NO OUTPUT CONTROL FOR STRESS PERIOD   20   TIME STEP   22
 
 SOLVING FOR HEAD 
                                                   Max.-Head-Change                         Max.-Flux-Residual
  Residual-Control   Outer-Iter.   Inner-Iter.     Column Row Layer    Maximum-Head-Change  Column Row Layer    Maximum-Flux-Residual          L2-NORM 
          0                 1           2             1    1     1       0.2553470400E-02       1    1    1         0.1324877648E+00      0.2602826723E+00
          0                 2           2             1    1     1      -0.2483831418E-03       1    1    1        -0.1324878332E-01      0.2602645243E-01
          0                 3           1             1    1     1       0.1691397015E-04       1    1    1         0.9274151619E-03      0.1821684025E-02

    ------------------------------------------------
       NWT REQUIRED            3 OUTER ITERATIONS 
       AND A TOTAL OF          5 INNER ITERATIONS.
    ------------------------------------------------

 NO OUTPUT CONTROL FOR STRESS PERIOD   20   TIME STEP   23
 
 SOLVING FOR HEAD 
                                                   Max.-Head-Change                         Max.-Flux-Residual
  Residual-Control   Outer-Iter.   Inner-Iter.     Column Row Layer    Maximum-Head-Change  Column Row Layer    Maximum-Flux-Residual          L2-NORM 
          0                 1           2             1    1     1       0.2552128931E-02       1    1    1         0.1324180262E+00      0.2600132776E+00
          0                 2           2             1    1     1      -0.2482526535E-03       1    1    1        -0.1324180947E-01      0.2599982865E-01
          0                 3           1             1    1     1       0.1690508425E-04       1    1    1         0.9269269961E-03      0.1819858209E-02

    ------------------------------------------------
       NWT REQUIRED            3 OUTER ITERATIONS 
       AND A TOTAL OF          5 INNER ITERATIONS.
    ------------------------------------------------

 NO OUTPUT CONTROL FOR STRESS PERIOD   20   TIME STEP   24
 
 SOLVING FOR HEAD 
                                                   Max.-Head-Change                         Max.-Flux-Residual
  Residual-Control   Outer-Iter.   Inner-Iter.     Column Row Layer    Maximum-Head-Change  Column Row Layer    Maximum-Flux-Residual          L2-NORM 
          0                 1           2             1    1     1       0.2550791026E-02       1    1    1         0.1323484735E+00      0.2597506093E+00
          0                 2           2             1    1     1      -0.2481225112E-03       1    1    1        -0.1323485415E-01      0.2597371782E-01
          0                 3           1             1    1     1       0.1689622226E-04       1    1    1         0.9264401345E-03      0.1818039985E-02

    ------------------------------------------------
       NWT REQUIRED            3 OUTER ITERATIONS 
       AND A TOTAL OF          5 INNER ITERATIONS.
    ------------------------------------------------

 NO OUTPUT CONTROL FOR STRESS PERIOD   20   TIME STEP   25
 
 SOLVING FOR HEAD 
                                                   Max.-Head-Change                         Max.-Flux-Residual
  Residual-Control   Outer-Iter.   Inner-Iter.     Column Row Layer    Maximum-Head-Change  Column Row Layer    Maximum-Flux-Residual          L2-NORM 
          0                 1           2             1    1     1       0.2549456684E-02       1    1    1         0.1322791057E+00      0.2595094691E+00
          0                 2           2             1    1     1      -0.2479927161E-03       1    1    1        -0.1322791736E-01      0.2594976221E-01
          0                 3           1             1    1     1       0.1688738370E-04       1    1    1         0.9259545559E-03      0.1816317621E-02

    ------------------------------------------------
       NWT REQUIRED            3 OUTER ITERATIONS 
       AND A TOTAL OF          5 INNER ITERATIONS.
    ------------------------------------------------

 NO OUTPUT CONTROL FOR STRESS PERIOD   20   TIME STEP   26
 
 SOLVING FOR HEAD 
                                                   Max.-Head-Change                         Max.-Flux-Residual
  Residual-Control   Outer-Iter.   Inner-Iter.     Column Row Layer    Maximum-Head-Change  Column Row Layer    Maximum-Flux-Residual          L2-NORM 
          0                 1           2             1    1     1       0.2548125886E-02       1    1    1         0.1322099227E+00      0.2592734741E+00
          0                 2           2             1    1     1      -0.2478632655E-03       1    1    1        -0.1322099904E-01      0.2592623524E-01
          0                 3           1             1    1     1       0.1687856856E-04       1    1    1         0.9254702662E-03      0.1814741526E-02

    ------------------------------------------------
       NWT REQUIRED            3 OUTER ITERATIONS 
       AND A TOTAL OF          5 INNER ITERATIONS.
    ------------------------------------------------

 NO OUTPUT CONTROL FOR STRESS PERIOD   20   TIME STEP   27
 
 SOLVING FOR HEAD 
                                                   Max.-Head-Change                         Max.-Flux-Residual
  Residual-Control   Outer-Iter.   Inner-Iter.     Column Row Layer    Maximum-Head-Change  Column Row Layer    Maximum-Flux-Residual          L2-NORM 
          0                 1           2             1    1     1       0.2546798629E-02       1    1    1         0.1321409233E+00      0.2590547438E+00
          0                 2           2             1    1     1      -0.2477341591E-03       1    1    1        -0.1321409909E-01      0.2590452957E-01
          0                 3           1             1    1     1       0.1686977662E-04       1    1    1         0.9249872577E-03      0.1813193601E-02

    ------------------------------------------------
       NWT REQUIRED            3 OUTER ITERATIONS 
       AND A TOTAL OF          5 INNER ITERATIONS.
    ------------------------------------------------

 NO OUTPUT CONTROL FOR STRESS PERIOD   20   TIME STEP   28
 
 SOLVING FOR HEAD 
                                                   Max.-Head-Change                         Max.-Flux-Residual
  Residual-Control   Outer-Iter.   Inner-Iter.     Column Row Layer    Maximum-Head-Change  Column Row Layer    Maximum-Flux-Residual          L2-NORM 
          0                 1           2             1    1     1       0.2545474902E-02       1    1    1         0.1320721076E+00      0.2588419763E+00
          0                 2           2             1    1     1      -0.2476053965E-03       1    1    1        -0.1320721750E-01      0.2588342436E-01
          0                 3           1             1    1     1       0.1686100835E-04       1    1    1         0.9245055597E-03      0.1811748485E-02

    ------------------------------------------------
       NWT REQUIRED            3 OUTER ITERATIONS 
       AND A TOTAL OF          5 INNER ITERATIONS.
    ------------------------------------------------

 NO OUTPUT CONTROL FOR STRESS PERIOD   20   TIME STEP   29
 
 SOLVING FOR HEAD 
                                                   Max.-Head-Change                         Max.-Flux-Residual
  Residual-Control   Outer-Iter.   Inner-Iter.     Column Row Layer    Maximum-Head-Change  Column Row Layer    Maximum-Flux-Residual          L2-NORM 
          0                 1           2             2   13     1      -0.3073666523E-02       4   13    1        -0.1760364320E+00      0.3817268518E+00
          0                 2           2             2   13     1       0.2887555954E-03       4   13    1         0.1747524439E-01      0.3759764837E-01
          0                 3           1             2   13     1      -0.1871126402E-04       4   13    1        -0.1210826034E-02      0.2577742921E-02

    ------------------------------------------------
       NWT REQUIRED            3 OUTER ITERATIONS 
       AND A TOTAL OF          5 INNER ITERATIONS.
    ------------------------------------------------

 NO OUTPUT CONTROL FOR STRESS PERIOD   20   TIME STEP   30



 STREAM LISTING     PERIOD     20   STEP       30

 LAYER ROW COL. STREAM  RCH.  FLOW INTO     FLOW TO   FLOW OUT OF   OVRLND.     DIRECT     STREAM       STREAM     STREAM     STREAM   STREAMBED  STREAMBED
                SEG.NO.  NO.  STRM. RCH.    AQUIFER    STRM. RCH.    RUNOFF     PRECIP       ET          HEAD       DEPTH      WIDTH   CONDCTNC.   GRADIENT

   1    1    1     1     1    3.2276E+01  2.7609E-01   3.2000E+01  0.000E+00  0.000E+00  0.000E+00  1.09432E+03  1.269E+00  1.437E+01  6.467E-02  1.423E+00
   1    2    2     1     2    3.2000E+01  4.2738E-01   3.1573E+01  0.000E+00  0.000E+00  0.000E+00  1.08932E+03  1.266E+00  1.431E+01  1.002E-01  1.422E+00
   1    3    3     1     3    3.1573E+01  3.6428E-01   3.1209E+01  0.000E+00  0.000E+00  0.000E+00  1.08368E+03  1.263E+00  1.424E+01  8.546E-02  1.421E+00
   1    3    4     1     4    3.1209E+01  3.3528E-01   3.0873E+01  0.000E+00  0.000E+00  0.000E+00  1.07867E+03  1.259E+00  1.418E+01  7.871E-02  1.420E+00
   1    4    5     2     1    2.8873E+01  3.3633E-01   2.8537E+01  0.000E+00  0.000E+00  0.000E+00  1.07325E+03  1.312E+00  1.200E+01  7.800E-02  1.437E+00
   1    5    6     2     2    2.8537E+01  2.5823E-01   2.8279E+01  0.000E+00  0.000E+00  0.000E+00  1.06781E+03  1.304E+00  1.200E+01  6.000E-02  1.435E+00
   1    6    6     2     3    2.8279E+01  2.5780E-01   2.8021E+01  0.000E+00  0.000E+00  0.000E+00  1.06309E+03  1.297E+00  1.200E+01  6.000E-02  1.432E+00
   1    7    6     2     4    2.8021E+01  2.5737E-01   2.7764E+01  0.000E+00  0.000E+00  0.000E+00  1.05836E+03  1.290E+00  1.200E+01  6.000E-02  1.430E+00
   1    8    6     2     5    2.7764E+01  2.5694E-01   2.7507E+01  0.000E+00  0.000E+00  0.000E+00  1.05364E+03  1.282E+00  1.200E+01  6.000E-02  1.427E+00
   1    3    5     3     1    2.0000E+00  2.8252E-01   1.7175E+00  0.000E+00  0.000E+00  0.000E+00  1.07555E+03  1.909E+00  9.636E+00  7.227E-02  1.955E+00
   1    3    6     3     2    1.7175E+00  2.4905E-01   1.4684E+00  0.000E+00  0.000E+00  0.000E+00  1.07264E+03  1.727E+00  8.909E+00  6.682E-02  1.864E+00
   1    3    7     3     3    1.4684E+00  1.9718E-01   1.2712E+00  0.000E+00  0.000E+00  0.000E+00  1.06987E+03  1.555E+00  8.218E+00  5.547E-02  1.777E+00
   1    4    8     3     4    1.2712E+00  2.2567E-01   1.0456E+00  0.000E+00  0.000E+00  0.000E+00  1.06682E+03  1.364E+00  7.455E+00  6.709E-02  1.682E+00
   1    5    8     3     5    1.0456E+00  1.5790E-01   8.8768E-01  0.000E+00  0.000E+00  0.000E+00  1.06362E+03  1.164E+00  6.655E+00  4.991E-02  1.582E+00
   1    6    8     3     6    8.8768E-01  5.5980E-02   8.3170E-01  0.000E+00  0.000E+00  0.000E+00  1.06158E+03  1.036E+00  6.145E+00  1.844E-02  1.518E+00
   1    5   10     4     1    1.0000E+01  9.0919E-02   9.9091E+00  0.000E+00  0.000E+00  0.000E+00  1.07836E+03  6.368E-01  1.000E+01  2.500E-02  1.212E+00
   1    5    9     4     2    9.9091E+00  1.8158E-01   9.7275E+00  0.000E+00  0.000E+00  0.000E+00  1.07154E+03  6.315E-01  1.000E+01  5.000E-02  1.211E+00
   1    6    8     4     3    9.7275E+00  1.2689E-01   9.6006E+00  0.000E+00  0.000E+00  0.000E+00  1.06381E+03  6.256E-01  1.000E+01  3.500E-02  1.209E+00
   1    6    8     5     1    1.0432E+01  2.2686E-01   1.0205E+01  0.000E+00  0.000E+00  0.000E+00  1.05868E+03  6.790E-01  1.542E+01  6.166E-02  1.226E+00
   1    7    7     5     2    1.0205E+01  2.7894E-01   9.9265E+00  0.000E+00  0.000E+00  0.000E+00  1.05417E+03  6.732E-01  1.519E+01  7.594E-02  1.224E+00
   1    8    7     5     3    9.9265E+00  1.9221E-01   9.7343E+00  0.000E+00  0.000E+00  0.000E+00  1.04992E+03  6.676E-01  1.497E+01  5.241E-02  1.223E+00
   1    8    6     5     4    9.7343E+00  1.3577E-01   9.5985E+00  0.000E+00  0.000E+00  0.000E+00  1.04691E+03  6.637E-01  1.482E+01  3.706E-02  1.221E+00
   1    9    6     6     1    3.7105E+01  2.7265E-01   3.6833E+01  0.000E+00  0.000E+00  0.000E+00  1.04427E+03  1.544E+00  1.200E+01  6.000E-02  1.515E+00
   1   10    7     6     2    3.6833E+01  2.7224E-01   3.6560E+01  0.000E+00  0.000E+00  0.000E+00  1.03972E+03  1.537E+00  1.200E+01  6.000E-02  1.512E+00
   1   11    7     6     3    3.6560E+01  2.7182E-01   3.6289E+01  0.000E+00  0.000E+00  0.000E+00  1.03517E+03  1.530E+00  1.200E+01  6.000E-02  1.510E+00
   1   12    7     6     4    3.6289E+01  2.7141E-01   3.6017E+01  0.000E+00  0.000E+00  0.000E+00  1.03061E+03  1.524E+00  1.200E+01  6.000E-02  1.508E+00
   1   13    7     6     5    3.6017E+01  5.4664E-03   3.6012E+01  0.000E+00  0.000E+00  0.000E+00  1.02743E+03  1.520E+00  1.200E+01  2.400E-02  7.592E-02
   1   14    9     7     1    1.5000E+02  1.3335E+00   1.4867E+02  0.000E+00  0.000E+00  0.000E+00  1.03987E+03  2.288E+00  5.529E+01  5.593E-01  7.948E-01
   1   13    8     7     2    1.4867E+02  1.8054E+00   1.4686E+02  0.000E+00  0.000E+00  0.000E+00  1.03478E+03  2.279E+00  5.526E+01  6.148E-01  9.789E-01
   1   13    7     7     3    1.4686E+02  1.3899E+00   1.4547E+02  0.000E+00  0.000E+00  0.000E+00  1.02969E+03  2.271E+00  5.522E+01  5.585E-01  8.296E-01
   1   13    6     8     1    1.8148E+02  8.7777E-01   1.8061E+02  0.000E+00  0.000E+00  0.000E+00  1.02490E+03  3.023E+00  4.383E+01  4.466E-01  6.551E-01
   1   13    5     8     2    1.8061E+02  1.1510E-01   1.8049E+02  0.000E+00  0.000E+00  0.000E+00  1.01864E+03  3.020E+00  4.378E+01  4.462E-01  8.599E-02
   1   13    4     8     3    1.8049E+02 -2.6901E+00   1.8318E+02  0.000E+00  0.000E+00  0.000E+00  1.01240E+03  3.028E+00  4.390E+01  4.474E+00 -2.004E-01
   1   13    3     8     4    1.8318E+02 -3.7537E+00   1.8693E+02  0.000E+00  0.000E+00  0.000E+00  1.00617E+03  3.048E+00  4.419E+01  4.503E+00 -2.778E-01
   1   13    2     8     5    1.8693E+02 -2.7277E+00   1.8966E+02  0.000E+00  0.000E+00  0.000E+00  9.99943E+02  3.068E+00  4.448E+01  4.533E+00 -2.006E-01
   1   13    1     8     6    1.8966E+02 -2.0745E+00   1.9174E+02  0.000E+00  0.000E+00  0.000E+00  9.94957E+02  3.082E+00  4.469E+01  2.733E+00 -2.531E-01
   1    8    6     9     1    0.0000E+00  0.0000E+00   0.0000E+00  0.000E+00  0.000E+00  0.000E+00  1.07875E+03  0.000E+00  4.000E+00  0.000E+00  1.000E+00
   1    8    5     9     2    0.0000E+00  0.0000E+00   0.0000E+00  0.000E+00  0.000E+00  0.000E+00  1.07825E+03  0.000E+00  4.000E+00  0.000E+00  1.000E+00





UNSATURATED ZONE PACKAGE VOLUMETRIC BUDGET FOR  TIME STEP    30 STRESS PERIOD   20
  ------------------------------------------------------------------------------



     CUMULATIVE VOLUMES      L**3       RATES FOR THIS TIME STEP      L**3/T
     ------------------                 ------------------------

           IN:                                      IN:
           ---                                      ---
        INFILTRATION =   221164810.2644          INFILTRATION =           4.4075

          OUT:                                     OUT:
          ----                                     ----
              UZF ET =   165270436.5096                UZF ET =           4.4075
        UZF RECHARGE =      674797.3606          UZF RECHARGE =       0.0000E+00

            IN - OUT =    55219576.3942              IN - OUT =       0.0000E+00

          STORAGE:                                 STORAGE:
          --------                                 --------
      STORAGE CHANGE =    55220222.8207        STORAGE CHANGE =       3.2368E-14

 PERCENT DISCREPANCY IS DIFFERENCE BETWEEN IN-OUT MINUS CHANGE IN STORAGE
 DIVIDED BY THE AVERAGE OF IN AND OUT TIMES 100

 PERCENT DISCREPANCY =          -0.00     PERCENT DISCREPANCY =           0.00






1
  VOLUMETRIC BUDGET FOR ENTIRE MODEL AT END OF TIME STEP   30, STRESS PERIOD  20
  ------------------------------------------------------------------------------

     CUMULATIVE VOLUMES      L**3       RATES FOR THIS TIME STEP      L**3/T
     ------------------                 ------------------------

           IN:                                      IN:
           ---                                      ---
               AG WELLS  =           0.0000                 AG WELLS  =           0.0000
        DIVERSION SEGMEN =      848802.5000          DIVERSION SEGMEN =           0.0000
    TS         GW IRRIGA =           0.0000      TS         GW IRRIGA =           0.0000
    TION         SW IRRI =           0.0000      TION         SW IRRI =           0.0000
    GATION      SYSTEM L =           0.0000      GATION      SYSTEM L =           0.0000
    OSSES GW      SYSTEM =           0.1856      OSSES GW      SYSTEM =           0.0000

                TOTAL IN =      848802.6875                  TOTAL IN =           0.0000

          OUT:                                     OUT:
          ----                                     ----
               AG WELLS  =           0.0000                 AG WELLS  =           0.0000
        DIVERSION SEGMEN =           0.0000          DIVERSION SEGMEN =           0.0000
    TS         GW IRRIGA =           0.0000      TS         GW IRRIGA =           0.0000
    TION         SW IRRI =      848819.6875      TION         SW IRRI =           0.0000
    GATION      SYSTEM L =           0.0000      GATION      SYSTEM L =           0.0000
    OSSES GW      SYSTEM =           0.0000      OSSES GW      SYSTEM =           0.0000

               TOTAL OUT =      848819.6875                 TOTAL OUT =           0.0000

                IN - OUT =         -17.0000                  IN - OUT =           0.0000

     PERCENT DISCREPANCY =          -0.00         PERCENT DISCREPANCY =           0.00



1
  VOLUMETRIC BUDGET FOR ENTIRE MODEL AT END OF TIME STEP   30, STRESS PERIOD  20
  ------------------------------------------------------------------------------

     CUMULATIVE VOLUMES      L**3       RATES FOR THIS TIME STEP      L**3/T
     ------------------                 ------------------------

           IN:                                      IN:
           ---                                      ---
             STORAGE     =    27276390.0000               STORAGE     =           0.7260
       CONSTANT HEAD     =           0.0000         CONSTANT HEAD     =           0.0000
     HEAD DEP BOUNDS     =    14300229.0000       HEAD DEP BOUNDS     =           0.2856
      STREAM LEAKAGE     =   605261184.0000        STREAM LEAKAGE     =          11.7865
        UZF RECHARGE     =      674797.2500          UZF RECHARGE     =           0.0000
               GW ET     =           0.0000                 GW ET     =           0.0000
     SURFACE LEAKAGE     =           0.0000       SURFACE LEAKAGE     =           0.0000
           AG WELLS      =           0.0000             AG WELLS      =           0.0000

                TOTAL IN =   647512640.0000                  TOTAL IN =          12.7981

          OUT:                                     OUT:
          ----                                     ----
             STORAGE     =    90187008.0000               STORAGE     =           1.0565
       CONSTANT HEAD     =           0.0000         CONSTANT HEAD     =           0.0000
     HEAD DEP BOUNDS     =    14654749.0000       HEAD DEP BOUNDS     =           0.2932
      STREAM LEAKAGE     =   533207520.0000        STREAM LEAKAGE     =          11.2459
        UZF RECHARGE     =           0.0000          UZF RECHARGE     =           0.0000
               GW ET     =     9477216.0000                 GW ET     =           0.2025
     SURFACE LEAKAGE     =           0.0000       SURFACE LEAKAGE     =           0.0000
           AG WELLS      =           0.0000             AG WELLS      =           0.0000

               TOTAL OUT =   647526528.0000                 TOTAL OUT =          12.7982

                IN - OUT =      -13888.0000                  IN - OUT =      -6.8665E-05

     PERCENT DISCREPANCY =          -0.00         PERCENT DISCREPANCY =          -0.00






         TIME SUMMARY AT END OF TIME STEP   30 IN STRESS PERIOD   20
                    SECONDS     MINUTES      HOURS       DAYS        YEARS
                    -----------------------------------------------------------
   TIME STEP LENGTH  87667.      1461.1      24.352      1.0147     2.77799E-03
 STRESS PERIOD TIME 2.63000E+06  43833.      730.56      30.440     8.33397E-02
         TOTAL TIME 5.00565E+07 8.34276E+05  13905.      579.36      1.5862    
1
1
                            STRESS PERIOD NO.   21, LENGTH =   2630000.    
                            -----------------------------------------------

                              NUMBER OF TIME STEPS =    30

                               MULTIPLIER FOR DELT =     1.000

                            INITIAL TIME STEP SIZE =   87666.66    

 REUSING NON-PARAMETER GHB CELLS FROM LAST STRESS PERIOD

      2 GHB CELLS

 REUSING STREAM SEGMENT DATA FROM LAST STRESS PERIOD



            AREAL INFILTRATION RATE
 READING ON UNIT   19 WITH FORMAT: (10F4.0)            

            1           2           3           4           5           6           7           8           9          10
 ........................................................................................................................
   1   1.2000E-09   0.000       0.000       0.000       0.000       0.000       0.000       0.000       0.000       0.000    
   2   2.1000E-09  2.0000E-09  8.0000E-10  8.5000E-09   0.000       0.000       0.000       0.000       0.000       0.000    
   3   5.0000E-10  1.1000E-09  8.8000E-09  5.5000E-09   0.000       0.000       0.000       0.000       0.000       0.000    
   4   8.5000E-09  1.1000E-09  1.1000E-09  1.1000E-09  2.0000E-09   0.000       0.000       0.000       0.000       0.000    
   5   8.5000E-09  1.1000E-09  1.1000E-09  1.1000E-09  1.1000E-09   0.000       0.000       0.000       0.000       0.000    
   6   8.5000E-09  5.2000E-09  2.1000E-09  1.1000E-09  1.5000E-09   0.000       0.000       0.000       0.000       0.000    
   7   8.5000E-09  5.2000E-09  2.1000E-09  1.2000E-09  2.0000E-09   0.000       0.000       0.000       0.000       0.000    
   8   5.0000E-10  5.2000E-09  2.1000E-09  1.2000E-09  5.0000E-09   0.000       0.000       0.000       0.000       0.000    
   9   5.0000E-10  5.2000E-09  2.1000E-09  1.2000E-09  5.0000E-09   0.000       0.000       0.000       0.000       0.000    
  10   5.0000E-10  5.2000E-09  2.1000E-09  1.2000E-09  5.8000E-09   0.000       0.000       0.000       0.000       0.000    
  11   1.0000E-10  1.1000E-09  1.1000E-09  1.2000E-09  5.0000E-09   0.000       0.000       0.000       0.000       0.000    
  12   1.1000E-09  1.1000E-09  1.1000E-09  1.1000E-09  2.0000E-09   0.000       0.000       0.000       0.000       0.000    
  13   1.1000E-09  2.2000E-09  2.2000E-09  2.1000E-09  1.0000E-09   0.000       0.000       0.000       0.000       0.000    
  14   2.0000E-10  5.5000E-09  5.5000E-09  5.2000E-09  1.0000E-09   0.000       0.000       0.000       0.000       0.000    
  15    0.000      8.8000E-09  8.8000E-09   0.000       0.000       0.000       0.000       0.000       0.000       0.000    

                  ET RATE =  3.250000E-07

 USING ET EXTINCTION DEPTH FROM PREVIOUS STRESS PERIOD. CURRENT PERIOD IS:      21

 USING EXTINCTION WATER CONTENT FROM PREVIOUS STRESS PERIOD. CURRENT PERIOD IS:      21

 USING AIR ENTRY PRESSURE FROM PREVIOUS STRESS PERIOD. CURRENT PERIOD IS:      21

 USING ROOT PRESSURE HEAD FROM PREVIOUS STRESS PERIOD. CURRENT PERIOD IS:      21

 USING ROOT ACTIVITY FROM PREVIOUS STRESS PERIOD. CURRENT PERIOD IS:      21

 PROCESSING AG STRESS PERIOD DATA

 READING AG STRESS PERIOD DATA

 READING IRRIGATION SEGMENT

 READING IRRIGATION WELL

 READING SUPPLEMENTAL WELL

 END PROCESSING AG STRESS PERIOD DATA OPTIONS
 
 SOLVING FOR HEAD 
                                                   Max.-Head-Change                         Max.-Flux-Residual
  Residual-Control   Outer-Iter.   Inner-Iter.     Column Row Layer    Maximum-Head-Change  Column Row Layer    Maximum-Flux-Residual          L2-NORM 
          0                 1           2             2   13     1      -0.4444560097E-02       2   13    1        -0.2509998720E+00      0.4496811235E+00
          0                 2           2             2   13     1       0.4196787874E-03       2   13    1         0.2436506275E-01      0.4416106882E-01
          0                 3           1             2   13     1      -0.2739276505E-04       2   13    1        -0.1634782486E-02      0.3014233428E-02

    ------------------------------------------------
       NWT REQUIRED            3 OUTER ITERATIONS 
       AND A TOTAL OF          5 INNER ITERATIONS.
    ------------------------------------------------

 NO OUTPUT CONTROL FOR STRESS PERIOD   21   TIME STEP    1
 
 SOLVING FOR HEAD 
                                                   Max.-Head-Change                         Max.-Flux-Residual
  Residual-Control   Outer-Iter.   Inner-Iter.     Column Row Layer    Maximum-Head-Change  Column Row Layer    Maximum-Flux-Residual          L2-NORM 
          0                 1           2             2   13     1      -0.4092334159E-02       2   13    1        -0.2312782150E+00      0.3968167259E+00
          0                 2           2             2   13     1       0.3879864788E-03       2   13    1         0.2254259316E-01      0.3654797425E-01
          0                 3           1             2   13     1      -0.2564137669E-04       2   13    1        -0.1531459798E-02      0.2509785733E-02

    ------------------------------------------------
       NWT REQUIRED            3 OUTER ITERATIONS 
       AND A TOTAL OF          5 INNER ITERATIONS.
    ------------------------------------------------

 NO OUTPUT CONTROL FOR STRESS PERIOD   21   TIME STEP    2
 
 SOLVING FOR HEAD 
                                                   Max.-Head-Change                         Max.-Flux-Residual
  Residual-Control   Outer-Iter.   Inner-Iter.     Column Row Layer    Maximum-Head-Change  Column Row Layer    Maximum-Flux-Residual          L2-NORM 
          0                 1           2             2   13     1      -0.3764829925E-02       2   13    1        -0.2128801956E+00      0.3620032237E+00
          0                 2           2             2   13     1       0.3573253250E-03       2   13    1         0.2077188023E-01      0.3563676434E-01
          0                 3           1             2   13     1      -0.2350666910E-04       2   13    1        -0.1404749081E-02      0.2442344212E-02

    ------------------------------------------------
       NWT REQUIRED            3 OUTER ITERATIONS 
       AND A TOTAL OF          5 INNER ITERATIONS.
    ------------------------------------------------

 NO OUTPUT CONTROL FOR STRESS PERIOD   21   TIME STEP    3
 
 SOLVING FOR HEAD 
                                                   Max.-Head-Change                         Max.-Flux-Residual
  Residual-Control   Outer-Iter.   Inner-Iter.     Column Row Layer    Maximum-Head-Change  Column Row Layer    Maximum-Flux-Residual          L2-NORM 
          0                 1           2             2   13     1      -0.3461800204E-02       2   13    1        -0.1958158495E+00      0.3403698677E+00
          0                 2           2             2   13     1       0.3289445468E-03       2   13    1         0.1912910782E-01      0.3355414180E-01
          0                 3           1             2   13     1      -0.2169087685E-04       2   13    1        -0.1296736417E-02      0.2304010097E-02

    ------------------------------------------------
       NWT REQUIRED            3 OUTER ITERATIONS 
       AND A TOTAL OF          5 INNER ITERATIONS.
    ------------------------------------------------

 NO OUTPUT CONTROL FOR STRESS PERIOD   21   TIME STEP    4
 
 SOLVING FOR HEAD 
                                                   Max.-Head-Change                         Max.-Flux-Residual
  Residual-Control   Outer-Iter.   Inner-Iter.     Column Row Layer    Maximum-Head-Change  Column Row Layer    Maximum-Flux-Residual          L2-NORM 
          0                 1           2             2   13     1      -0.3182160163E-02       2   13    1        -0.1800396361E+00      0.3224355380E+00
          0                 2           2             2   13     1       0.3018252941E-03       2   13    1         0.1760476891E-01      0.3150620374E-01
          0                 3           1             2   13     1      -0.2007867485E-04       2   13    1        -0.1204512784E-02      0.2181975828E-02

    ------------------------------------------------
       NWT REQUIRED            3 OUTER ITERATIONS 
       AND A TOTAL OF          5 INNER ITERATIONS.
    ------------------------------------------------

 NO OUTPUT CONTROL FOR STRESS PERIOD   21   TIME STEP    5
 
 SOLVING FOR HEAD 
                                                   Max.-Head-Change                         Max.-Flux-Residual
  Residual-Control   Outer-Iter.   Inner-Iter.     Column Row Layer    Maximum-Head-Change  Column Row Layer    Maximum-Flux-Residual          L2-NORM 
          0                 1           2             2   13     1      -0.2927326573E-02       2   13    1        -0.1655309053E+00      0.3079400319E+00
          0                 2           2             2   13     1       0.2782128161E-03       2   13    1         0.1617399195E-01      0.3041275353E-01
          0                 3           1             2   13     1      -0.1833520060E-04       2   13    1        -0.1095812414E-02      0.2092771003E-02

    ------------------------------------------------
       NWT REQUIRED            3 OUTER ITERATIONS 
       AND A TOTAL OF          5 INNER ITERATIONS.
    ------------------------------------------------

 NO OUTPUT CONTROL FOR STRESS PERIOD   21   TIME STEP    6
 
 SOLVING FOR HEAD 
                                                   Max.-Head-Change                         Max.-Flux-Residual
  Residual-Control   Outer-Iter.   Inner-Iter.     Column Row Layer    Maximum-Head-Change  Column Row Layer    Maximum-Flux-Residual          L2-NORM 
          0                 1           2             2   13     1      -0.2693053033E-02       2   13    1        -0.1522402677E+00      0.2956172521E+00
          0                 2           2             2   13     1       0.2558572934E-03       2   13    1         0.1487001083E-01      0.2921670966E-01
          0                 3           1             2   13     1      -0.1680899538E-04       2   13    1        -0.1004271292E-02      0.2011450360E-02

    ------------------------------------------------
       NWT REQUIRED            3 OUTER ITERATIONS 
       AND A TOTAL OF          5 INNER ITERATIONS.
    ------------------------------------------------

 NO OUTPUT CONTROL FOR STRESS PERIOD   21   TIME STEP    7
 
 SOLVING FOR HEAD 
                                                   Max.-Head-Change                         Max.-Flux-Residual
  Residual-Control   Outer-Iter.   Inner-Iter.     Column Row Layer    Maximum-Head-Change  Column Row Layer    Maximum-Flux-Residual          L2-NORM 
          0                 1           2             2   13     1      -0.2478240101E-02       2   13    1        -0.1400565464E+00      0.2845535868E+00
          0                 2           2             2   13     1       0.2354616448E-03       2   13    1         0.1368066868E-01      0.2814676114E-01
          0                 3           1             2   13     1      -0.1551317797E-04       2   13    1        -0.9266007246E-03      0.1941084798E-02

    ------------------------------------------------
       NWT REQUIRED            3 OUTER ITERATIONS 
       AND A TOTAL OF          5 INNER ITERATIONS.
    ------------------------------------------------

 NO OUTPUT CONTROL FOR STRESS PERIOD   21   TIME STEP    8
 
 SOLVING FOR HEAD 
                                                   Max.-Head-Change                         Max.-Flux-Residual
  Residual-Control   Outer-Iter.   Inner-Iter.     Column Row Layer    Maximum-Head-Change  Column Row Layer    Maximum-Flux-Residual          L2-NORM 
          0                 1           2             2   13     1      -0.2281363393E-02       2   13    1        -0.1288927436E+00      0.2746212638E+00
          0                 2           2             2   13     1       0.2168133890E-03       2   13    1         0.1259348478E-01      0.2718694667E-01
          0                 3           1             2   13     1      -0.1427542753E-04       2   13    1        -0.8524046470E-03      0.1876839646E-02

    ------------------------------------------------
       NWT REQUIRED            3 OUTER ITERATIONS 
       AND A TOTAL OF          5 INNER ITERATIONS.
    ------------------------------------------------

 NO OUTPUT CONTROL FOR STRESS PERIOD   21   TIME STEP    9
 
 SOLVING FOR HEAD 
                                                   Max.-Head-Change                         Max.-Flux-Residual
  Residual-Control   Outer-Iter.   Inner-Iter.     Column Row Layer    Maximum-Head-Change  Column Row Layer    Maximum-Flux-Residual          L2-NORM 
          0                 1           2             2   13     1      -0.2100579409E-02       2   13    1        -0.1186438618E+00      0.2656926883E+00
          0                 2           2             2   13     1       0.1994855583E-03       2   13    1         0.1158347579E-01      0.2631931830E-01
          0                 3           1             2   13     1      -0.1313293441E-04       2   13    1        -0.7839357449E-03      0.1818824241E-02

    ------------------------------------------------
       NWT REQUIRED            3 OUTER ITERATIONS 
       AND A TOTAL OF          5 INNER ITERATIONS.
    ------------------------------------------------

 NO OUTPUT CONTROL FOR STRESS PERIOD   21   TIME STEP   10
 
 SOLVING FOR HEAD 
                                                   Max.-Head-Change                         Max.-Flux-Residual
  Residual-Control   Outer-Iter.   Inner-Iter.     Column Row Layer    Maximum-Head-Change  Column Row Layer    Maximum-Flux-Residual          L2-NORM 
          0                 1           2             2    1     1       0.1937698923E-02       2   13    1        -0.1092521434E+00      0.2576850727E+00
          0                 2           2             2    1     1      -0.1884853857E-03       2   13    1         0.1066557602E-01      0.2554517681E-01
          0                 3           1             2    1     1       0.1283515648E-04       2   13    1        -0.7217895745E-03      0.1767331218E-02

    ------------------------------------------------
       NWT REQUIRED            3 OUTER ITERATIONS 
       AND A TOTAL OF          5 INNER ITERATIONS.
    ------------------------------------------------

 NO OUTPUT CONTROL FOR STRESS PERIOD   21   TIME STEP   11
 
 SOLVING FOR HEAD 
                                                   Max.-Head-Change                         Max.-Flux-Residual
  Residual-Control   Outer-Iter.   Inner-Iter.     Column Row Layer    Maximum-Head-Change  Column Row Layer    Maximum-Flux-Residual          L2-NORM 
          0                 1           2             2    1     1       0.1935763219E-02       2   13    1        -0.1006302232E+00      0.2504800929E+00
          0                 2           2             2    1     1      -0.1882970937E-03       2    1    1        -0.1004839777E-01      0.2484776346E-01
          0                 3           1             2    1     1       0.1282233470E-04       2    1    1         0.7033880839E-03      0.1720537005E-02

    ------------------------------------------------
       NWT REQUIRED            3 OUTER ITERATIONS 
       AND A TOTAL OF          5 INNER ITERATIONS.
    ------------------------------------------------

 NO OUTPUT CONTROL FOR STRESS PERIOD   21   TIME STEP   12
 
 SOLVING FOR HEAD 
                                                   Max.-Head-Change                         Max.-Flux-Residual
  Residual-Control   Outer-Iter.   Inner-Iter.     Column Row Layer    Maximum-Head-Change  Column Row Layer    Maximum-Flux-Residual          L2-NORM 
          0                 1           2             2    1     1       0.1933863638E-02       2    1    1         0.1003846504E+00      0.2440050621E+00
          0                 2           2             2    1     1      -0.1881123149E-03       2    1    1        -0.1003847282E-01      0.2422089610E-01
          0                 3           1             2    1     1       0.1280975197E-04       2    1    1         0.7026933228E-03      0.1678409278E-02

    ------------------------------------------------
       NWT REQUIRED            3 OUTER ITERATIONS 
       AND A TOTAL OF          5 INNER ITERATIONS.
    ------------------------------------------------

 NO OUTPUT CONTROL FOR STRESS PERIOD   21   TIME STEP   13
 
 SOLVING FOR HEAD 
                                                   Max.-Head-Change                         Max.-Flux-Residual
  Residual-Control   Outer-Iter.   Inner-Iter.     Column Row Layer    Maximum-Head-Change  Column Row Layer    Maximum-Flux-Residual          L2-NORM 
          0                 1           2             2    1     1       0.1931957018E-02       2    1    1         0.1002850445E+00      0.2381795961E+00
          0                 2           2             2    1     1      -0.1879268523E-03       2    1    1        -0.1002851220E-01      0.2365824902E-01
          0                 3           1             2    1     1       0.1279712284E-04       2    1    1         0.7019960920E-03      0.1640637632E-02

    ------------------------------------------------
       NWT REQUIRED            3 OUTER ITERATIONS 
       AND A TOTAL OF          5 INNER ITERATIONS.
    ------------------------------------------------

 NO OUTPUT CONTROL FOR STRESS PERIOD   21   TIME STEP   14
 
 SOLVING FOR HEAD 
                                                   Max.-Head-Change                         Max.-Flux-Residual
  Residual-Control   Outer-Iter.   Inner-Iter.     Column Row Layer    Maximum-Head-Change  Column Row Layer    Maximum-Flux-Residual          L2-NORM 
          0                 1           2             2    1     1       0.1930086117E-02       2    1    1         0.1001873038E+00      0.2329368681E+00
          0                 2           2             2    1     1      -0.1877448635E-03       2    1    1        -0.1001873806E-01      0.2315129270E-01
          0                 3           1             2    1     1       0.1278473016E-04       2    1    1         0.7013119003E-03      0.1612950521E-02

    ------------------------------------------------
       NWT REQUIRED            3 OUTER ITERATIONS 
       AND A TOTAL OF          5 INNER ITERATIONS.
    ------------------------------------------------

 NO OUTPUT CONTROL FOR STRESS PERIOD   21   TIME STEP   15
 
 SOLVING FOR HEAD 
                                                   Max.-Head-Change                         Max.-Flux-Residual
  Residual-Control   Outer-Iter.   Inner-Iter.     Column Row Layer    Maximum-Head-Change  Column Row Layer    Maximum-Flux-Residual          L2-NORM 
          0                 1           2             2    1     1       0.1928207677E-02       2    1    1         0.1000891849E+00      0.2282089356E+00
          0                 2           2             2    1     1      -0.1875621419E-03       2    1    1        -0.1000892613E-01      0.2269318276E-01
          0                 3           1             2    1     1       0.1277228753E-04       2    1    1         0.7006250602E-03      0.1576623027E-02

    ------------------------------------------------
       NWT REQUIRED            3 OUTER ITERATIONS 
       AND A TOTAL OF          5 INNER ITERATIONS.
    ------------------------------------------------

 NO OUTPUT CONTROL FOR STRESS PERIOD   21   TIME STEP   16
 
 SOLVING FOR HEAD 
                                                   Max.-Head-Change                         Max.-Flux-Residual
  Residual-Control   Outer-Iter.   Inner-Iter.     Column Row Layer    Maximum-Head-Change  Column Row Layer    Maximum-Flux-Residual          L2-NORM 
          0                 1           2             2    1     1       0.1926343108E-02       2    1    1         0.9999179017E-01      0.2239429731E+00
          0                 2           2             2    1     1      -0.1873807691E-03       2    1    1        -0.9999186598E-02      0.2228157946E-01
          0                 3           1             2    1     1       0.1275993674E-04       2    1    1         0.6999432855E-03      0.1550067498E-02

    ------------------------------------------------
       NWT REQUIRED            3 OUTER ITERATIONS 
       AND A TOTAL OF          5 INNER ITERATIONS.
    ------------------------------------------------

 NO OUTPUT CONTROL FOR STRESS PERIOD   21   TIME STEP   17
 
 SOLVING FOR HEAD 
                                                   Max.-Head-Change                         Max.-Flux-Residual
  Residual-Control   Outer-Iter.   Inner-Iter.     Column Row Layer    Maximum-Head-Change  Column Row Layer    Maximum-Flux-Residual          L2-NORM 
          0                 1           2             2    1     1       0.1924513680E-02       2    1    1         0.9989623009E-01      0.2200956363E+00
          0                 2           2             2    1     1      -0.1872028150E-03       2    1    1        -0.9989630525E-02      0.2190858640E-01
          0                 3           1             2    1     1       0.1274781883E-04       2    1    1         0.6992743741E-03      0.1524378480E-02

    ------------------------------------------------
       NWT REQUIRED            3 OUTER ITERATIONS 
       AND A TOTAL OF          5 INNER ITERATIONS.
    ------------------------------------------------

 NO OUTPUT CONTROL FOR STRESS PERIOD   21   TIME STEP   18
 
 SOLVING FOR HEAD 
                                                   Max.-Head-Change                         Max.-Flux-Residual
  Residual-Control   Outer-Iter.   Inner-Iter.     Column Row Layer    Maximum-Head-Change  Column Row Layer    Maximum-Flux-Residual          L2-NORM 
          0                 1           2             2    1     1       0.1922676233E-02       2    1    1         0.9980026128E-01      0.2166151599E+00
          0                 2           2             2    1     1      -0.1870240809E-03       2    1    1        -0.9980033605E-02      0.2157048966E-01
          0                 3           1             2    1     1       0.1273564767E-04       2    1    1         0.6986025853E-03      0.1500661240E-02

    ------------------------------------------------
       NWT REQUIRED            3 OUTER ITERATIONS 
       AND A TOTAL OF          5 INNER ITERATIONS.
    ------------------------------------------------

 NO OUTPUT CONTROL FOR STRESS PERIOD   21   TIME STEP   19
 
 SOLVING FOR HEAD 
                                                   Max.-Head-Change                         Max.-Flux-Residual
  Residual-Control   Outer-Iter.   Inner-Iter.     Column Row Layer    Maximum-Head-Change  Column Row Layer    Maximum-Flux-Residual          L2-NORM 
          0                 1           2             2    1     1       0.1920852093E-02       2    1    1         0.9970499203E-01      0.2134608176E+00
          0                 2           2             2    1     1      -0.1868466411E-03       2    1    1        -0.9970506640E-02      0.2126610531E-01
          0                 3           1             2    1     1       0.1272356479E-04       2    1    1         0.6979357005E-03      0.1481257176E-02

    ------------------------------------------------
       NWT REQUIRED            3 OUTER ITERATIONS 
       AND A TOTAL OF          5 INNER ITERATIONS.
    ------------------------------------------------

 NO OUTPUT CONTROL FOR STRESS PERIOD   21   TIME STEP   20
 
 SOLVING FOR HEAD 
                                                   Max.-Head-Change                         Max.-Flux-Residual
  Residual-Control   Outer-Iter.   Inner-Iter.     Column Row Layer    Maximum-Head-Change  Column Row Layer    Maximum-Flux-Residual          L2-NORM 
          0                 1           2             2    1     1       0.1919062539E-02       2    1    1         0.9961152824E-01      0.2106040110E+00
          0                 2           2             2    1     1      -0.1866725652E-03       2    1    1        -0.9961160205E-02      0.2098907320E-01
          0                 3           1             2    1     1       0.1271171101E-04       2    1    1         0.6972814363E-03      0.1462116761E-02

    ------------------------------------------------
       NWT REQUIRED            3 OUTER ITERATIONS 
       AND A TOTAL OF          5 INNER ITERATIONS.
    ------------------------------------------------

 NO OUTPUT CONTROL FOR STRESS PERIOD   21   TIME STEP   21
 
 SOLVING FOR HEAD 
                                                   Max.-Head-Change                         Max.-Flux-Residual
  Residual-Control   Outer-Iter.   Inner-Iter.     Column Row Layer    Maximum-Head-Change  Column Row Layer    Maximum-Flux-Residual          L2-NORM 
          0                 1           2             2    1     1       0.1917264512E-02       2    1    1         0.9951762667E-01      0.2080053986E+00
          0                 2           2             2    1     1      -0.1864976656E-03       2    1    1        -0.9951770000E-02      0.2073683880E-01
          0                 3           1             2    1     1       0.1269980114E-04       2    1    1         0.6966241380E-03      0.1445579739E-02

    ------------------------------------------------
       NWT REQUIRED            3 OUTER ITERATIONS 
       AND A TOTAL OF          5 INNER ITERATIONS.
    ------------------------------------------------

 NO OUTPUT CONTROL FOR STRESS PERIOD   21   TIME STEP   22
 
 SOLVING FOR HEAD 
                                                   Max.-Head-Change                         Max.-Flux-Residual
  Residual-Control   Outer-Iter.   Inner-Iter.     Column Row Layer    Maximum-Head-Change  Column Row Layer    Maximum-Flux-Residual          L2-NORM 
          0                 1           2             2    1     1       0.1915479278E-02       2    1    1         0.9942440131E-01      0.2056490574E+00
          0                 2           2             2    1     1      -0.1863240100E-03       2    1    1        -0.9942447406E-02      0.2050826218E-01
          0                 3           1             2    1     1       0.1268797552E-04       2    1    1         0.6959715379E-03      0.1430140412E-02

    ------------------------------------------------
       NWT REQUIRED            3 OUTER ITERATIONS 
       AND A TOTAL OF          5 INNER ITERATIONS.
    ------------------------------------------------

 NO OUTPUT CONTROL FOR STRESS PERIOD   21   TIME STEP   23
 
 SOLVING FOR HEAD 
                                                   Max.-Head-Change                         Max.-Flux-Residual
  Residual-Control   Outer-Iter.   Inner-Iter.     Column Row Layer    Maximum-Head-Change  Column Row Layer    Maximum-Flux-Residual          L2-NORM 
          0                 1           2             2    1     1       0.1913706637E-02       2    1    1         0.9933183930E-01      0.2034932583E+00
          0                 2           2             2    1     1      -0.1861515800E-03       2    1    1        -0.9933191165E-02      0.2029843611E-01
          0                 3           1             2    1     1       0.1267623416E-04       2    1    1         0.6953236182E-03      0.1415878363E-02

    ------------------------------------------------
       NWT REQUIRED            3 OUTER ITERATIONS 
       AND A TOTAL OF          5 INNER ITERATIONS.
    ------------------------------------------------

 NO OUTPUT CONTROL FOR STRESS PERIOD   21   TIME STEP   24
 
 SOLVING FOR HEAD 
                                                   Max.-Head-Change                         Max.-Flux-Residual
  Residual-Control   Outer-Iter.   Inner-Iter.     Column Row Layer    Maximum-Head-Change  Column Row Layer    Maximum-Flux-Residual          L2-NORM 
          0                 1           2             2    1     1       0.1911967883E-02       2    1    1         0.9924104594E-01      0.2015299070E+00
          0                 2           2             2    1     1      -0.1859824454E-03       2    1    1        -0.9924111765E-02      0.2010807807E-01
          0                 3           1             2    1     1       0.1266471646E-04       2    1    1         0.6946880477E-03      0.1403426245E-02

    ------------------------------------------------
       NWT REQUIRED            3 OUTER ITERATIONS 
       AND A TOTAL OF          5 INNER ITERATIONS.
    ------------------------------------------------

 NO OUTPUT CONTROL FOR STRESS PERIOD   21   TIME STEP   25
 
 SOLVING FOR HEAD 
                                                   Max.-Head-Change                         Max.-Flux-Residual
  Residual-Control   Outer-Iter.   Inner-Iter.     Column Row Layer    Maximum-Head-Change  Column Row Layer    Maximum-Flux-Residual          L2-NORM 
          0                 1           2             2    1     1       0.1910219959E-02       2    1    1         0.9914977805E-01      0.1997366877E+00
          0                 2           2             2    1     1      -0.1858124199E-03       2    1    1        -0.9914984949E-02      0.1993075291E-01
          0                 3           1             2    1     1       0.1265313864E-04       2    1    1         0.6940491829E-03      0.1389519826E-02

    ------------------------------------------------
       NWT REQUIRED            3 OUTER ITERATIONS 
       AND A TOTAL OF          5 INNER ITERATIONS.
    ------------------------------------------------

 NO OUTPUT CONTROL FOR STRESS PERIOD   21   TIME STEP   26
 
 SOLVING FOR HEAD 
                                                   Max.-Head-Change                         Max.-Flux-Residual
  Residual-Control   Outer-Iter.   Inner-Iter.     Column Row Layer    Maximum-Head-Change  Column Row Layer    Maximum-Flux-Residual          L2-NORM 
          0                 1           2             2    1     1       0.1908484118E-02       2    1    1         0.9905915046E-01      0.1980963283E+00
          0                 2           2             2    1     1      -0.1856435692E-03       2    1    1        -0.9905922142E-02      0.1977380911E-01
          0                 3           1             2    1     1       0.1264164058E-04       2    1    1         0.6934147895E-03      0.1380889317E-02

    ------------------------------------------------
       NWT REQUIRED            3 OUTER ITERATIONS 
       AND A TOTAL OF          5 INNER ITERATIONS.
    ------------------------------------------------

 NO OUTPUT CONTROL FOR STRESS PERIOD   21   TIME STEP   27
 
 SOLVING FOR HEAD 
                                                   Max.-Head-Change                         Max.-Flux-Residual
  Residual-Control   Outer-Iter.   Inner-Iter.     Column Row Layer    Maximum-Head-Change  Column Row Layer    Maximum-Flux-Residual          L2-NORM 
          0                 1           2             2    1     1       0.1906760296E-02       2    1    1         0.9896914942E-01      0.1965850924E+00
          0                 2           2             2    1     1      -0.1854758875E-03       2    1    1        -0.9896921989E-02      0.1962666576E-01
          0                 3           1             2    1     1       0.1263022227E-04       2    1    1         0.6927847726E-03      0.1371220285E-02

    ------------------------------------------------
       NWT REQUIRED            3 OUTER ITERATIONS 
       AND A TOTAL OF          5 INNER ITERATIONS.
    ------------------------------------------------

 NO OUTPUT CONTROL FOR STRESS PERIOD   21   TIME STEP   28
 
 SOLVING FOR HEAD 
                                                   Max.-Head-Change                         Max.-Flux-Residual
  Residual-Control   Outer-Iter.   Inner-Iter.     Column Row Layer    Maximum-Head-Change  Column Row Layer    Maximum-Flux-Residual          L2-NORM 
          0                 1           2             2    1     1       0.1905069705E-02       2    1    1         0.9888088755E-01      0.1951978847E+00
          0                 2           2             2    1     1      -0.1853114384E-03       2    1    1        -0.9888095761E-02      0.1949131869E-01
          0                 3           1             2    1     1       0.1261902384E-04       2    1    1         0.6921669323E-03      0.1361894103E-02

    ------------------------------------------------
       NWT REQUIRED            3 OUTER ITERATIONS 
       AND A TOTAL OF          5 INNER ITERATIONS.
    ------------------------------------------------

 NO OUTPUT CONTROL FOR STRESS PERIOD   21   TIME STEP   29
 
 SOLVING FOR HEAD 
                                                   Max.-Head-Change                         Max.-Flux-Residual
  Residual-Control   Outer-Iter.   Inner-Iter.     Column Row Layer    Maximum-Head-Change  Column Row Layer    Maximum-Flux-Residual          L2-NORM 
          0                 1           2             2    1     1       0.1903369287E-02       2    1    1         0.9879211659E-01      0.1939213729E+00
          0                 2           2             2    1     1      -0.1851460337E-03       2    1    1        -0.9879218631E-02      0.1936648263E-01
          0                 3           1             2    1     1       0.1260776032E-04       2    1    1         0.6915455329E-03      0.1353410860E-02

    ------------------------------------------------
       NWT REQUIRED            3 OUTER ITERATIONS 
       AND A TOTAL OF          5 INNER ITERATIONS.
    ------------------------------------------------

 NO OUTPUT CONTROL FOR STRESS PERIOD   21   TIME STEP   30



 STREAM LISTING     PERIOD     21   STEP       30

 LAYER ROW COL. STREAM  RCH.  FLOW INTO     FLOW TO   FLOW OUT OF   OVRLND.     DIRECT     STREAM       STREAM     STREAM     STREAM   STREAMBED  STREAMBED
                SEG.NO.  NO.  STRM. RCH.    AQUIFER    STRM. RCH.    RUNOFF     PRECIP       ET          HEAD       DEPTH      WIDTH   CONDCTNC.   GRADIENT

   1    1    1     1     1    2.7750E+01  2.5751E-01   2.7493E+01  0.000E+00  0.000E+00  0.000E+00  1.09427E+03  1.218E+00  1.357E+01  6.105E-02  1.406E+00
   1    2    2     1     2    2.7493E+01  3.9833E-01   2.7095E+01  0.000E+00  0.000E+00  0.000E+00  1.08927E+03  1.213E+00  1.351E+01  9.454E-02  1.404E+00
   1    3    3     1     3    2.7095E+01  3.3924E-01   2.6755E+01  0.000E+00  0.000E+00  0.000E+00  1.08363E+03  1.208E+00  1.344E+01  8.062E-02  1.403E+00
   1    3    4     1     4    2.6755E+01  3.1201E-01   2.6443E+01  0.000E+00  0.000E+00  0.000E+00  1.07861E+03  1.203E+00  1.337E+01  7.423E-02  1.401E+00
   1    4    5     2     1    2.4443E+01  3.2655E-01   2.4117E+01  0.000E+00  0.000E+00  0.000E+00  1.07312E+03  1.187E+00  1.200E+01  7.800E-02  1.396E+00
   1    5    6     2     2    2.4117E+01  2.5069E-01   2.3866E+01  0.000E+00  0.000E+00  0.000E+00  1.06769E+03  1.178E+00  1.200E+01  6.000E-02  1.393E+00
   1    6    6     2     3    2.3866E+01  2.5024E-01   2.3616E+01  0.000E+00  0.000E+00  0.000E+00  1.06296E+03  1.171E+00  1.200E+01  6.000E-02  1.390E+00
   1    7    6     2     4    2.3616E+01  2.4980E-01   2.3366E+01  0.000E+00  0.000E+00  0.000E+00  1.05824E+03  1.163E+00  1.200E+01  6.000E-02  1.388E+00
   1    8    6     2     5    2.3366E+01  2.4935E-01   2.3117E+01  0.000E+00  0.000E+00  0.000E+00  1.05351E+03  1.156E+00  1.200E+01  6.000E-02  1.385E+00
   1    3    5     3     1    2.0000E+00  2.8252E-01   1.7175E+00  0.000E+00  0.000E+00  0.000E+00  1.07555E+03  1.909E+00  9.636E+00  7.227E-02  1.955E+00
   1    3    6     3     2    1.7175E+00  2.4905E-01   1.4684E+00  0.000E+00  0.000E+00  0.000E+00  1.07264E+03  1.727E+00  8.909E+00  6.682E-02  1.864E+00
   1    3    7     3     3    1.4684E+00  1.9718E-01   1.2712E+00  0.000E+00  0.000E+00  0.000E+00  1.06987E+03  1.555E+00  8.218E+00  5.547E-02  1.777E+00
   1    4    8     3     4    1.2712E+00  2.2567E-01   1.0456E+00  0.000E+00  0.000E+00  0.000E+00  1.06682E+03  1.364E+00  7.455E+00  6.709E-02  1.682E+00
   1    5    8     3     5    1.0456E+00  1.5790E-01   8.8768E-01  0.000E+00  0.000E+00  0.000E+00  1.06362E+03  1.164E+00  6.655E+00  4.991E-02  1.582E+00
   1    6    8     3     6    8.8768E-01  5.5980E-02   8.3170E-01  0.000E+00  0.000E+00  0.000E+00  1.06158E+03  1.036E+00  6.145E+00  1.844E-02  1.518E+00
   1    5   10     4     1    1.0000E+01  9.0919E-02   9.9091E+00  0.000E+00  0.000E+00  0.000E+00  1.07836E+03  6.368E-01  1.000E+01  2.500E-02  1.212E+00
   1    5    9     4     2    9.9091E+00  1.8158E-01   9.7275E+00  0.000E+00  0.000E+00  0.000E+00  1.07154E+03  6.315E-01  1.000E+01  5.000E-02  1.211E+00
   1    6    8     4     3    9.7275E+00  1.2689E-01   9.6006E+00  0.000E+00  0.000E+00  0.000E+00  1.06381E+03  6.256E-01  1.000E+01  3.500E-02  1.209E+00
   1    6    8     5     1    1.0432E+01  2.2686E-01   1.0205E+01  0.000E+00  0.000E+00  0.000E+00  1.05868E+03  6.790E-01  1.542E+01  6.166E-02  1.226E+00
   1    7    7     5     2    1.0205E+01  2.7894E-01   9.9265E+00  0.000E+00  0.000E+00  0.000E+00  1.05417E+03  6.732E-01  1.519E+01  7.594E-02  1.224E+00
   1    8    7     5     3    9.9265E+00  1.9221E-01   9.7343E+00  0.000E+00  0.000E+00  0.000E+00  1.04992E+03  6.676E-01  1.497E+01  5.241E-02  1.223E+00
   1    8    6     5     4    9.7343E+00  1.3577E-01   9.5985E+00  0.000E+00  0.000E+00  0.000E+00  1.04691E+03  6.637E-01  1.482E+01  3.706E-02  1.221E+00
   1    9    6     6     1    3.2715E+01  2.6588E-01   3.2449E+01  0.000E+00  0.000E+00  0.000E+00  1.04416E+03  1.431E+00  1.200E+01  6.000E-02  1.477E+00
   1   10    7     6     2    3.2449E+01  2.6546E-01   3.2184E+01  0.000E+00  0.000E+00  0.000E+00  1.03961E+03  1.424E+00  1.200E+01  6.000E-02  1.475E+00
   1   11    7     6     3    3.2184E+01  2.6504E-01   3.1919E+01  0.000E+00  0.000E+00  0.000E+00  1.03505E+03  1.417E+00  1.200E+01  6.000E-02  1.472E+00
   1   12    7     6     4    3.1919E+01  2.6462E-01   3.1654E+01  0.000E+00  0.000E+00  0.000E+00  1.03050E+03  1.410E+00  1.200E+01  6.000E-02  1.470E+00
   1   13    7     6     5    3.1654E+01  2.8571E-03   3.1651E+01  0.000E+00  0.000E+00  0.000E+00  1.02732E+03  1.407E+00  1.200E+01  2.400E-02  3.968E-02
   1   14    9     7     1    1.5000E+02  1.3333E+00   1.4867E+02  0.000E+00  0.000E+00  0.000E+00  1.03987E+03  2.288E+00  5.529E+01  5.593E-01  7.946E-01
   1   13    8     7     2    1.4867E+02  1.8049E+00   1.4686E+02  0.000E+00  0.000E+00  0.000E+00  1.03478E+03  2.279E+00  5.526E+01  6.148E-01  9.786E-01
   1   13    7     7     3    1.4686E+02  1.3925E+00   1.4547E+02  0.000E+00  0.000E+00  0.000E+00  1.02969E+03  2.271E+00  5.522E+01  5.585E-01  8.311E-01
   1   13    6     8     1    1.7712E+02  8.6657E-01   1.7625E+02  0.000E+00  0.000E+00  0.000E+00  1.02487E+03  2.995E+00  4.343E+01  4.426E-01  6.527E-01
   1   13    5     8     2    1.7625E+02  1.1004E-01   1.7614E+02  0.000E+00  0.000E+00  0.000E+00  1.01862E+03  2.992E+00  4.339E+01  4.421E-01  8.296E-02
   1   13    4     8     3    1.7614E+02 -2.6829E+00   1.7883E+02  0.000E+00  0.000E+00  0.000E+00  1.01238E+03  3.000E+00  4.350E+01  4.433E+00 -2.017E-01
   1   13    3     8     4    1.7883E+02 -3.7664E+00   1.8259E+02  0.000E+00  0.000E+00  0.000E+00  1.00615E+03  3.021E+00  4.380E+01  4.463E+00 -2.813E-01
   1   13    2     8     5    1.8259E+02 -2.6143E+00   1.8521E+02  0.000E+00  0.000E+00  0.000E+00  9.99916E+02  3.041E+00  4.409E+01  4.493E+00 -1.940E-01
   1   13    1     8     6    1.8521E+02 -2.0146E+00   1.8722E+02  0.000E+00  0.000E+00  0.000E+00  9.94930E+02  3.055E+00  4.429E+01  2.708E+00 -2.480E-01
   1    8    6     9     1    0.0000E+00  0.0000E+00   0.0000E+00  0.000E+00  0.000E+00  0.000E+00  1.07875E+03  0.000E+00  4.000E+00  0.000E+00  1.000E+00
   1    8    5     9     2    0.0000E+00  0.0000E+00   0.0000E+00  0.000E+00  0.000E+00  0.000E+00  1.07825E+03  0.000E+00  4.000E+00  0.000E+00  1.000E+00





UNSATURATED ZONE PACKAGE VOLUMETRIC BUDGET FOR  TIME STEP    30 STRESS PERIOD   21
  ------------------------------------------------------------------------------



     CUMULATIVE VOLUMES      L**3       RATES FOR THIS TIME STEP      L**3/T
     ------------------                 ------------------------

           IN:                                      IN:
           ---                                      ---
        INFILTRATION =   232756534.8225          INFILTRATION =           4.4075

          OUT:                                     OUT:
          ----                                     ----
              UZF ET =   176862161.0677                UZF ET =           4.4075
        UZF RECHARGE =      674797.3606          UZF RECHARGE =       0.0000E+00

            IN - OUT =    55219576.3942              IN - OUT =       0.0000E+00

          STORAGE:                                 STORAGE:
          --------                                 --------
      STORAGE CHANGE =    55220222.8207        STORAGE CHANGE =      -5.6271E-14

 PERCENT DISCREPANCY IS DIFFERENCE BETWEEN IN-OUT MINUS CHANGE IN STORAGE
 DIVIDED BY THE AVERAGE OF IN AND OUT TIMES 100

 PERCENT DISCREPANCY =          -0.00     PERCENT DISCREPANCY =           0.00






1
  VOLUMETRIC BUDGET FOR ENTIRE MODEL AT END OF TIME STEP   30, STRESS PERIOD  21
  ------------------------------------------------------------------------------

     CUMULATIVE VOLUMES      L**3       RATES FOR THIS TIME STEP      L**3/T
     ------------------                 ------------------------

           IN:                                      IN:
           ---                                      ---
               AG WELLS  =           0.0000                 AG WELLS  =           0.0000
        DIVERSION SEGMEN =      848802.5000          DIVERSION SEGMEN =           0.0000
    TS         GW IRRIGA =           0.0000      TS         GW IRRIGA =           0.0000
    TION         SW IRRI =           0.0000      TION         SW IRRI =           0.0000
    GATION      SYSTEM L =           0.0000      GATION      SYSTEM L =           0.0000
    OSSES GW      SYSTEM =           0.1856      OSSES GW      SYSTEM =           0.0000

                TOTAL IN =      848802.6875                  TOTAL IN =           0.0000

          OUT:                                     OUT:
          ----                                     ----
               AG WELLS  =           0.0000                 AG WELLS  =           0.0000
        DIVERSION SEGMEN =           0.0000          DIVERSION SEGMEN =           0.0000
    TS         GW IRRIGA =           0.0000      TS         GW IRRIGA =           0.0000
    TION         SW IRRI =      848819.6875      TION         SW IRRI =           0.0000
    GATION      SYSTEM L =           0.0000      GATION      SYSTEM L =           0.0000
    OSSES GW      SYSTEM =           0.0000      OSSES GW      SYSTEM =           0.0000

               TOTAL OUT =      848819.6875                 TOTAL OUT =           0.0000

                IN - OUT =         -17.0000                  IN - OUT =           0.0000

     PERCENT DISCREPANCY =          -0.00         PERCENT DISCREPANCY =           0.00



1
  VOLUMETRIC BUDGET FOR ENTIRE MODEL AT END OF TIME STEP   30, STRESS PERIOD  21
  ------------------------------------------------------------------------------

     CUMULATIVE VOLUMES      L**3       RATES FOR THIS TIME STEP      L**3/T
     ------------------                 ------------------------

           IN:                                      IN:
           ---                                      ---
             STORAGE     =    28693030.0000               STORAGE     =           0.3381
       CONSTANT HEAD     =           0.0000         CONSTANT HEAD     =           0.0000
     HEAD DEP BOUNDS     =    15051347.0000       HEAD DEP BOUNDS     =           0.2856
      STREAM LEAKAGE     =   635764480.0000        STREAM LEAKAGE     =          11.6064
        UZF RECHARGE     =      674797.2500          UZF RECHARGE     =           0.0000
               GW ET     =           0.0000                 GW ET     =           0.0000
     SURFACE LEAKAGE     =           0.0000       SURFACE LEAKAGE     =           0.0000
           AG WELLS      =           0.0000             AG WELLS      =           0.0000

                TOTAL IN =   680183680.0000                  TOTAL IN =          12.2301

          OUT:                                     OUT:
          ----                                     ----
             STORAGE     =    92539208.0000               STORAGE     =           0.8604
       CONSTANT HEAD     =           0.0000         CONSTANT HEAD     =           0.0000
     HEAD DEP BOUNDS     =    15423245.0000       HEAD DEP BOUNDS     =           0.2916
      STREAM LEAKAGE     =   562744768.0000        STREAM LEAKAGE     =          11.0782
        UZF RECHARGE     =           0.0000          UZF RECHARGE     =           0.0000
               GW ET     =     9490485.0000                 GW ET     =           0.0000
     SURFACE LEAKAGE     =           0.0000       SURFACE LEAKAGE     =           0.0000
           AG WELLS      =           0.0000             AG WELLS      =           0.0000

               TOTAL OUT =   680197696.0000                 TOTAL OUT =          12.2302

                IN - OUT =      -14016.0000                  IN - OUT =      -1.4400E-04

     PERCENT DISCREPANCY =          -0.00         PERCENT DISCREPANCY =          -0.00






         TIME SUMMARY AT END OF TIME STEP   30 IN STRESS PERIOD   21
                    SECONDS     MINUTES      HOURS       DAYS        YEARS
                    -----------------------------------------------------------
   TIME STEP LENGTH  87667.      1461.1      24.352      1.0147     2.77799E-03
 STRESS PERIOD TIME 2.63000E+06  43833.      730.56      30.440     8.33397E-02
         TOTAL TIME 5.26866E+07 8.78110E+05  14635.      609.80      1.6695    
1
1
                            STRESS PERIOD NO.   22, LENGTH =   2630000.    
                            -----------------------------------------------

                              NUMBER OF TIME STEPS =    30

                               MULTIPLIER FOR DELT =     1.000

                            INITIAL TIME STEP SIZE =   87666.66    

 REUSING NON-PARAMETER GHB CELLS FROM LAST STRESS PERIOD

      2 GHB CELLS

 REUSING STREAM SEGMENT DATA FROM LAST STRESS PERIOD



            AREAL INFILTRATION RATE
 READING ON UNIT   19 WITH FORMAT: (10F4.0)            

            1           2           3           4           5           6           7           8           9          10
 ........................................................................................................................
   1   1.2000E-09   0.000       0.000       0.000       0.000       0.000       0.000       0.000       0.000       0.000    
   2   2.1000E-09  2.0000E-09  8.0000E-10  8.5000E-09   0.000       0.000       0.000       0.000       0.000       0.000    
   3   5.0000E-10  1.1000E-09  8.8000E-09  5.5000E-09   0.000       0.000       0.000       0.000       0.000       0.000    
   4   8.5000E-09  1.1000E-09  1.1000E-09  1.1000E-09  2.0000E-09   0.000       0.000       0.000       0.000       0.000    
   5   8.5000E-09  1.1000E-09  1.1000E-09  1.1000E-09  1.1000E-09   0.000       0.000       0.000       0.000       0.000    
   6   8.5000E-09  5.2000E-09  2.1000E-09  1.1000E-09  1.5000E-09   0.000       0.000       0.000       0.000       0.000    
   7   8.5000E-09  5.2000E-09  2.1000E-09  1.2000E-09  2.0000E-09   0.000       0.000       0.000       0.000       0.000    
   8   5.0000E-10  5.2000E-09  2.1000E-09  1.2000E-09  5.0000E-09   0.000       0.000       0.000       0.000       0.000    
   9   5.0000E-10  5.2000E-09  2.1000E-09  1.2000E-09  5.0000E-09   0.000       0.000       0.000       0.000       0.000    
  10   5.0000E-10  5.2000E-09  2.1000E-09  1.2000E-09  5.8000E-09   0.000       0.000       0.000       0.000       0.000    
  11   1.0000E-10  1.1000E-09  1.1000E-09  1.2000E-09  5.0000E-09   0.000       0.000       0.000       0.000       0.000    
  12   1.1000E-09  1.1000E-09  1.1000E-09  1.1000E-09  2.0000E-09   0.000       0.000       0.000       0.000       0.000    
  13   1.1000E-09  2.2000E-09  2.2000E-09  2.1000E-09  1.0000E-09   0.000       0.000       0.000       0.000       0.000    
  14   2.0000E-10  5.5000E-09  5.5000E-09  5.2000E-09  1.0000E-09   0.000       0.000       0.000       0.000       0.000    
  15    0.000      8.8000E-09  8.8000E-09   0.000       0.000       0.000       0.000       0.000       0.000       0.000    

                  ET RATE =  7.500000E-08

 USING ET EXTINCTION DEPTH FROM PREVIOUS STRESS PERIOD. CURRENT PERIOD IS:      22

 USING EXTINCTION WATER CONTENT FROM PREVIOUS STRESS PERIOD. CURRENT PERIOD IS:      22

 USING AIR ENTRY PRESSURE FROM PREVIOUS STRESS PERIOD. CURRENT PERIOD IS:      22

 USING ROOT PRESSURE HEAD FROM PREVIOUS STRESS PERIOD. CURRENT PERIOD IS:      22

 USING ROOT ACTIVITY FROM PREVIOUS STRESS PERIOD. CURRENT PERIOD IS:      22

 PROCESSING AG STRESS PERIOD DATA

 READING AG STRESS PERIOD DATA

 READING IRRIGATION SEGMENT

 READING IRRIGATION WELL

 READING SUPPLEMENTAL WELL

 END PROCESSING AG STRESS PERIOD DATA OPTIONS
 
 SOLVING FOR HEAD 
                                                   Max.-Head-Change                         Max.-Flux-Residual
  Residual-Control   Outer-Iter.   Inner-Iter.     Column Row Layer    Maximum-Head-Change  Column Row Layer    Maximum-Flux-Residual          L2-NORM 
          0                 1           2             2   13     1      -0.3139474546E-02       2   13    1        -0.1765141558E+00      0.3694823769E+00
          0                 2           2             7   13     1      -0.3135547698E-03       4   13    1         0.1734498507E-01      0.4055012969E-01
          0                 3           1             7   13     1       0.3049025024E-04       7   13    1         0.1703685211E-02      0.3037434805E-02

    ------------------------------------------------
       NWT REQUIRED            3 OUTER ITERATIONS 
       AND A TOTAL OF          5 INNER ITERATIONS.
    ------------------------------------------------

 NO OUTPUT CONTROL FOR STRESS PERIOD   22   TIME STEP    1
 
 SOLVING FOR HEAD 
                                                   Max.-Head-Change                         Max.-Flux-Residual
  Residual-Control   Outer-Iter.   Inner-Iter.     Column Row Layer    Maximum-Head-Change  Column Row Layer    Maximum-Flux-Residual          L2-NORM 
          0                 1           2             2   13     1      -0.3386703404E-02       2   13    1        -0.1903693460E+00      0.3963174393E+00
          0                 2           2             2   13     1       0.3160848643E-03       2   13    1         0.1826345133E-01      0.3881684574E-01
          0                 3           1             4   13     1      -0.2087643584E-04       4   13    1        -0.1261002339E-02      0.2644345523E-02

    ------------------------------------------------
       NWT REQUIRED            3 OUTER ITERATIONS 
       AND A TOTAL OF          5 INNER ITERATIONS.
    ------------------------------------------------

 NO OUTPUT CONTROL FOR STRESS PERIOD   22   TIME STEP    2
 
 SOLVING FOR HEAD 
                                                   Max.-Head-Change                         Max.-Flux-Residual
  Residual-Control   Outer-Iter.   Inner-Iter.     Column Row Layer    Maximum-Head-Change  Column Row Layer    Maximum-Flux-Residual          L2-NORM 
          0                 1           2             2   13     1      -0.3138888292E-02       2   13    1        -0.1764119685E+00      0.3740368023E+00
          0                 2           2             2   13     1       0.2930132121E-03       2   13    1         0.1692761827E-01      0.3666218851E-01
          0                 3           1             4   13     1      -0.1886395863E-04       4   13    1        -0.1138432323E-02      0.2498270609E-02

    ------------------------------------------------
       NWT REQUIRED            3 OUTER ITERATIONS 
       AND A TOTAL OF          5 INNER ITERATIONS.
    ------------------------------------------------

 NO OUTPUT CONTROL FOR STRESS PERIOD   22   TIME STEP    3
 
 SOLVING FOR HEAD 
                                                   Max.-Head-Change                         Max.-Flux-Residual
  Residual-Control   Outer-Iter.   Inner-Iter.     Column Row Layer    Maximum-Head-Change  Column Row Layer    Maximum-Flux-Residual          L2-NORM 
          0                 1           2             2   13     1      -0.2909602699E-02       2   13    1        -0.1634996187E+00      0.3538602454E+00
          0                 2           2             2   13     1       0.2716417824E-03       2   13    1         0.1569039622E-01      0.3471001313E-01
          0                 3           1             2   13     1      -0.1743339710E-04       4   13    1        -0.1036778439E-02      0.2366351587E-02

    ------------------------------------------------
       NWT REQUIRED            3 OUTER ITERATIONS 
       AND A TOTAL OF          5 INNER ITERATIONS.
    ------------------------------------------------

 NO OUTPUT CONTROL FOR STRESS PERIOD   22   TIME STEP    4
 
 SOLVING FOR HEAD 
                                                   Max.-Head-Change                         Max.-Flux-Residual
  Residual-Control   Outer-Iter.   Inner-Iter.     Column Row Layer    Maximum-Head-Change  Column Row Layer    Maximum-Flux-Residual          L2-NORM 
          0                 1           2             2   13     1      -0.2697449701E-02       2   13    1        -0.1515533180E+00      0.3355950022E+00
          0                 2           2             2   13     1       0.2519043932E-03       2   13    1         0.1454789114E-01      0.3294659035E-01
          0                 3           1             2   13     1      -0.1619850259E-04       2   13    1        -0.9614699393E-03      0.2249579437E-02

    ------------------------------------------------
       NWT REQUIRED            3 OUTER ITERATIONS 
       AND A TOTAL OF          5 INNER ITERATIONS.
    ------------------------------------------------

 NO OUTPUT CONTROL FOR STRESS PERIOD   22   TIME STEP    5
 
 SOLVING FOR HEAD 
                                                   Max.-Head-Change                         Max.-Flux-Residual
  Residual-Control   Outer-Iter.   Inner-Iter.     Column Row Layer    Maximum-Head-Change  Column Row Layer    Maximum-Flux-Residual          L2-NORM 
          0                 1           2             2   13     1      -0.2501206794E-02       2   13    1        -0.1405041544E+00      0.3190517627E+00
          0                 2           2             2   13     1       0.2336054491E-03       2   13    1         0.1348877697E-01      0.3134845826E-01
          0                 3           1             2   13     1      -0.1500809579E-04       2   13    1        -0.8906567800E-03      0.2141567698E-02

    ------------------------------------------------
       NWT REQUIRED            3 OUTER ITERATIONS 
       AND A TOTAL OF          5 INNER ITERATIONS.
    ------------------------------------------------

 NO OUTPUT CONTROL FOR STRESS PERIOD   22   TIME STEP    6
 
 SOLVING FOR HEAD 
                                                   Max.-Head-Change                         Max.-Flux-Residual
  Residual-Control   Outer-Iter.   Inner-Iter.     Column Row Layer    Maximum-Head-Change  Column Row Layer    Maximum-Flux-Residual          L2-NORM 
          0                 1           2             2   13     1      -0.2319535199E-02       2   13    1        -0.1302764215E+00      0.3040711536E+00
          0                 2           2             2   13     1       0.2166633469E-03       2   13    1         0.1250897975E-01      0.2987220328E-01
          0                 3           1             2   13     1      -0.1394711863E-04       2   13    1        -0.8282865174E-03      0.2016973879E-02

    ------------------------------------------------
       NWT REQUIRED            3 OUTER ITERATIONS 
       AND A TOTAL OF          5 INNER ITERATIONS.
    ------------------------------------------------

 NO OUTPUT CONTROL FOR STRESS PERIOD   22   TIME STEP    7
 
 SOLVING FOR HEAD 
                                                   Max.-Head-Change                         Max.-Flux-Residual
  Residual-Control   Outer-Iter.   Inner-Iter.     Column Row Layer    Maximum-Head-Change  Column Row Layer    Maximum-Flux-Residual          L2-NORM 
          0                 1           2             2   13     1      -0.2151470164E-02       2   13    1        -0.1208157800E+00      0.2905000972E+00
          0                 2           2             2   13     1       0.2009591726E-03       2   13    1         0.1159952263E-01      0.2859229709E-01
          0                 3           1             2   13     1      -0.1289655295E-04       2   13    1        -0.7650318257E-03      0.1958167504E-02

    ------------------------------------------------
       NWT REQUIRED            3 OUTER ITERATIONS 
       AND A TOTAL OF          5 INNER ITERATIONS.
    ------------------------------------------------

 NO OUTPUT CONTROL FOR STRESS PERIOD   22   TIME STEP    8
 
 SOLVING FOR HEAD 
                                                   Max.-Head-Change                         Max.-Flux-Residual
  Residual-Control   Outer-Iter.   Inner-Iter.     Column Row Layer    Maximum-Head-Change  Column Row Layer    Maximum-Flux-Residual          L2-NORM 
          0                 1           2             2   13     1      -0.1995914116E-02       2   13    1        -0.1120602098E+00      0.2782003998E+00
          0                 2           2             2   13     1       0.1864527945E-03       2   13    1         0.1076018763E-01      0.2740650162E-01
          0                 3           1             2    1     1       0.1236291756E-04       2   13    1        -0.7098326223E-03      0.1878909516E-02

    ------------------------------------------------
       NWT REQUIRED            3 OUTER ITERATIONS 
       AND A TOTAL OF          5 INNER ITERATIONS.
    ------------------------------------------------

 NO OUTPUT CONTROL FOR STRESS PERIOD   22   TIME STEP    9
 
 SOLVING FOR HEAD 
                                                   Max.-Head-Change                         Max.-Flux-Residual
  Residual-Control   Outer-Iter.   Inner-Iter.     Column Row Layer    Maximum-Head-Change  Column Row Layer    Maximum-Flux-Residual          L2-NORM 
          0                 1           2             2    1     1       0.1862386434E-02       2   13    1        -0.1039573060E+00      0.2670498223E+00
          0                 2           2             2    1     1      -0.1811595951E-03       2   13    1         0.9982887478E-02      0.2633124468E-01
          0                 3           1             2    1     1       0.1233629513E-04       2    1    1         0.6775126769E-03      0.1807774686E-02

    ------------------------------------------------
       NWT REQUIRED            3 OUTER ITERATIONS 
       AND A TOTAL OF          5 INNER ITERATIONS.
    ------------------------------------------------

 NO OUTPUT CONTROL FOR STRESS PERIOD   22   TIME STEP   10
 
 SOLVING FOR HEAD 
                                                   Max.-Head-Change                         Max.-Flux-Residual
  Residual-Control   Outer-Iter.   Inner-Iter.     Column Row Layer    Maximum-Head-Change  Column Row Layer    Maximum-Flux-Residual          L2-NORM 
          0                 1           2             2    1     1       0.1858395031E-02       2    1    1         0.9657898990E-01      0.2569333228E+00
          0                 2           2             2    1     1      -0.1807713388E-03       2    1    1        -0.9657910792E-02      0.2535590353E-01
          0                 3           1             2    1     1       0.1230985613E-04       2    1    1         0.6760539330E-03      0.1743756542E-02

    ------------------------------------------------
       NWT REQUIRED            3 OUTER ITERATIONS 
       AND A TOTAL OF          5 INNER ITERATIONS.
    ------------------------------------------------

 NO OUTPUT CONTROL FOR STRESS PERIOD   22   TIME STEP   11
 
 SOLVING FOR HEAD 
                                                   Max.-Head-Change                         Max.-Flux-Residual
  Residual-Control   Outer-Iter.   Inner-Iter.     Column Row Layer    Maximum-Head-Change  Column Row Layer    Maximum-Flux-Residual          L2-NORM 
          0                 1           2             2    1     1       0.1854430994E-02       2    1    1         0.9637203975E-01      0.2477509064E+00
          0                 2           2             2    1     1      -0.1803857446E-03       2    1    1        -0.9637215669E-02      0.2447227412E-01
          0                 3           1             2    1     1       0.1228359936E-04       2    1    1         0.6746052899E-03      0.1685092647E-02

    ------------------------------------------------
       NWT REQUIRED            3 OUTER ITERATIONS 
       AND A TOTAL OF          5 INNER ITERATIONS.
    ------------------------------------------------

 NO OUTPUT CONTROL FOR STRESS PERIOD   22   TIME STEP   12
 
 SOLVING FOR HEAD 
                                                   Max.-Head-Change                         Max.-Flux-Residual
  Residual-Control   Outer-Iter.   Inner-Iter.     Column Row Layer    Maximum-Head-Change  Column Row Layer    Maximum-Flux-Residual          L2-NORM 
          0                 1           2             2    1     1       0.1850494098E-02       2    1    1         0.9616650850E-01      0.2394037490E+00
          0                 2           2             2    1     1      -0.1800027903E-03       2    1    1        -0.9616662447E-02      0.2366527027E-01
          0                 3           1             2    1     1       0.1225752104E-04       2    1    1         0.6731665497E-03      0.1630602582E-02

    ------------------------------------------------
       NWT REQUIRED            3 OUTER ITERATIONS 
       AND A TOTAL OF          5 INNER ITERATIONS.
    ------------------------------------------------

 NO OUTPUT CONTROL FOR STRESS PERIOD   22   TIME STEP   13
 
 SOLVING FOR HEAD 
                                                   Max.-Head-Change                         Max.-Flux-Residual
  Residual-Control   Outer-Iter.   Inner-Iter.     Column Row Layer    Maximum-Head-Change  Column Row Layer    Maximum-Flux-Residual          L2-NORM 
          0                 1           2             2    1     1       0.1846584026E-02       2    1    1         0.9596238453E-01      0.2318158801E+00
          0                 2           2             2    1     1      -0.1796224459E-03       2    1    1        -0.9596249971E-02      0.2293480824E-01
          0                 3           1             2    1     1       0.1223162117E-04       2    1    1         0.6717376773E-03      0.1583314396E-02

    ------------------------------------------------
       NWT REQUIRED            3 OUTER ITERATIONS 
       AND A TOTAL OF          5 INNER ITERATIONS.
    ------------------------------------------------

 NO OUTPUT CONTROL FOR STRESS PERIOD   22   TIME STEP   14
 
 SOLVING FOR HEAD 
                                                   Max.-Head-Change                         Max.-Flux-Residual
  Residual-Control   Outer-Iter.   Inner-Iter.     Column Row Layer    Maximum-Head-Change  Column Row Layer    Maximum-Flux-Residual          L2-NORM 
          0                 1           2             2    1     1       0.1842678973E-02       2    1    1         0.9575853435E-01      0.2249014709E+00
          0                 2           2             2    1     1      -0.1792425894E-03       2    1    1        -0.9575864874E-02      0.2226914780E-01
          0                 3           1             2    1     1       0.1220575444E-04       2    1    1         0.6703107198E-03      0.1538530191E-02

    ------------------------------------------------
       NWT REQUIRED            3 OUTER ITERATIONS 
       AND A TOTAL OF          5 INNER ITERATIONS.
    ------------------------------------------------

 NO OUTPUT CONTROL FOR STRESS PERIOD   22   TIME STEP   15
 
 SOLVING FOR HEAD 
                                                   Max.-Head-Change                         Max.-Flux-Residual
  Residual-Control   Outer-Iter.   Inner-Iter.     Column Row Layer    Maximum-Head-Change  Column Row Layer    Maximum-Flux-Residual          L2-NORM 
          0                 1           2             2    1     1       0.1838821731E-02       2    1    1         0.9555717834E-01      0.2185944964E+00
          0                 2           2             2    1     1      -0.1788673834E-03       2    1    1        -0.9555729158E-02      0.2165989305E-01
          0                 3           1             2    1     1       0.1218020461E-04       2    1    1         0.6689012385E-03      0.1497985331E-02

    ------------------------------------------------
       NWT REQUIRED            3 OUTER ITERATIONS 
       AND A TOTAL OF          5 INNER ITERATIONS.
    ------------------------------------------------

 NO OUTPUT CONTROL FOR STRESS PERIOD   22   TIME STEP   16
 
 SOLVING FOR HEAD 
                                                   Max.-Head-Change                         Max.-Flux-Residual
  Residual-Control   Outer-Iter.   Inner-Iter.     Column Row Layer    Maximum-Head-Change  Column Row Layer    Maximum-Flux-Residual          L2-NORM 
          0                 1           2             2    1     1       0.1834990384E-02       2    1    1         0.9535718438E-01      0.2128312111E+00
          0                 2           2             2    1     1      -0.1784946962E-03       2    1    1        -0.9535729685E-02      0.2110447465E-01
          0                 3           1             2    1     1       0.1215482567E-04       2    1    1         0.6675012477E-03      0.1461293376E-02

    ------------------------------------------------
       NWT REQUIRED            3 OUTER ITERATIONS 
       AND A TOTAL OF          5 INNER ITERATIONS.
    ------------------------------------------------

 NO OUTPUT CONTROL FOR STRESS PERIOD   22   TIME STEP   17
 
 SOLVING FOR HEAD 
                                                   Max.-Head-Change                         Max.-Flux-Residual
  Residual-Control   Outer-Iter.   Inner-Iter.     Column Row Layer    Maximum-Head-Change  Column Row Layer    Maximum-Flux-Residual          L2-NORM 
          0                 1           2             2    1     1       0.1831163136E-02       2    1    1         0.9515741580E-01      0.2075619066E+00
          0                 2           2             2    1     1      -0.1781224080E-03       2    1    1        -0.9515752731E-02      0.2059490140E-01
          0                 3           1             2    1     1       0.1212947441E-04       2    1    1         0.6661028672E-03      0.1426262225E-02

    ------------------------------------------------
       NWT REQUIRED            3 OUTER ITERATIONS 
       AND A TOTAL OF          5 INNER ITERATIONS.
    ------------------------------------------------

 NO OUTPUT CONTROL FOR STRESS PERIOD   22   TIME STEP   18
 
 SOLVING FOR HEAD 
                                                   Max.-Head-Change                         Max.-Flux-Residual
  Residual-Control   Outer-Iter.   Inner-Iter.     Column Row Layer    Maximum-Head-Change  Column Row Layer    Maximum-Flux-Residual          L2-NORM 
          0                 1           2             2    1     1       0.1827382830E-02       2    1    1         0.9496009410E-01      0.2027341996E+00
          0                 2           2             2    1     1      -0.1777546862E-03       2    1    1        -0.9496020476E-02      0.2012847189E-01
          0                 3           1             2    1     1       0.1210443390E-04       2    1    1         0.6647216126E-03      0.1395506421E-02

    ------------------------------------------------
       NWT REQUIRED            3 OUTER ITERATIONS 
       AND A TOTAL OF          5 INNER ITERATIONS.
    ------------------------------------------------

 NO OUTPUT CONTROL FOR STRESS PERIOD   22   TIME STEP   19
 
 SOLVING FOR HEAD 
                                                   Max.-Head-Change                         Max.-Flux-Residual
  Residual-Control   Outer-Iter.   Inner-Iter.     Column Row Layer    Maximum-Head-Change  Column Row Layer    Maximum-Flux-Residual          L2-NORM 
          0                 1           2             2    1     1       0.1823627628E-02       2    1    1         0.9476408916E-01      0.1982964502E+00
          0                 2           2             2    1     1      -0.1773894062E-03       2    1    1        -0.9476419892E-02      0.1969895541E-01
          0                 3           1             2    1     1       0.1207955978E-04       2    1    1         0.6633495864E-03      0.1366633504E-02

    ------------------------------------------------
       NWT REQUIRED            3 OUTER ITERATIONS 
       AND A TOTAL OF          5 INNER ITERATIONS.
    ------------------------------------------------

 NO OUTPUT CONTROL FOR STRESS PERIOD   22   TIME STEP   20
 
 SOLVING FOR HEAD 
                                                   Max.-Head-Change                         Max.-Flux-Residual
  Residual-Control   Outer-Iter.   Inner-Iter.     Column Row Layer    Maximum-Head-Change  Column Row Layer    Maximum-Flux-Residual          L2-NORM 
          0                 1           2             2    1     1       0.1819875646E-02       2    1    1         0.9456826849E-01      0.1942199447E+00
          0                 2           2             2    1     1      -0.1770244398E-03       2    1    1        -0.9456837758E-02      0.1930514407E-01
          0                 3           1             2    1     1       0.1205470743E-04       2    1    1         0.6619788465E-03      0.1340480843E-02

    ------------------------------------------------
       NWT REQUIRED            3 OUTER ITERATIONS 
       AND A TOTAL OF          5 INNER ITERATIONS.
    ------------------------------------------------

 NO OUTPUT CONTROL FOR STRESS PERIOD   22   TIME STEP   21
 
 SOLVING FOR HEAD 
                                                   Max.-Head-Change                         Max.-Flux-Residual
  Residual-Control   Outer-Iter.   Inner-Iter.     Column Row Layer    Maximum-Head-Change  Column Row Layer    Maximum-Flux-Residual          L2-NORM 
          0                 1           2             2    1     1       0.1816169716E-02       2    1    1         0.9437484941E-01      0.1904551922E+00
          0                 2           2             2    1     1      -0.1766639521E-03       2    1    1        -0.9437495745E-02      0.1893980278E-01
          0                 3           1             2    1     1       0.1203015920E-04       2    1    1         0.6606248916E-03      0.1315843867E-02

    ------------------------------------------------
       NWT REQUIRED            3 OUTER ITERATIONS 
       AND A TOTAL OF          5 INNER ITERATIONS.
    ------------------------------------------------

 NO OUTPUT CONTROL FOR STRESS PERIOD   22   TIME STEP   22
 
 SOLVING FOR HEAD 
                                                   Max.-Head-Change                         Max.-Flux-Residual
  Residual-Control   Outer-Iter.   Inner-Iter.     Column Row Layer    Maximum-Head-Change  Column Row Layer    Maximum-Flux-Residual          L2-NORM 
          0                 1           2             2    1     1       0.1812466541E-02       2    1    1         0.9418158339E-01      0.1869799276E+00
          0                 2           2             2    1     1      -0.1763037326E-03       2    1    1        -0.9418169065E-02      0.1860287350E-01
          0                 3           1             2    1     1       0.1200562944E-04       2    1    1         0.6592720072E-03      0.1292931104E-02

    ------------------------------------------------
       NWT REQUIRED            3 OUTER ITERATIONS 
       AND A TOTAL OF          5 INNER ITERATIONS.
    ------------------------------------------------

 NO OUTPUT CONTROL FOR STRESS PERIOD   22   TIME STEP   23
 
 SOLVING FOR HEAD 
                                                   Max.-Head-Change                         Max.-Flux-Residual
  Residual-Control   Outer-Iter.   Inner-Iter.     Column Row Layer    Maximum-Head-Change  Column Row Layer    Maximum-Flux-Residual          L2-NORM 
          0                 1           2             2    1     1       0.1808808894E-02       2    1    1         0.9399069501E-01      0.1837611420E+00
          0                 2           2             2    1     1      -0.1759479423E-03       2    1    1        -0.9399080152E-02      0.1829073721E-01
          0                 3           1             2    1     1       0.1198140191E-04       2    1    1         0.6579357957E-03      0.1272115343E-02

    ------------------------------------------------
       NWT REQUIRED            3 OUTER ITERATIONS 
       AND A TOTAL OF          5 INNER ITERATIONS.
    ------------------------------------------------

 NO OUTPUT CONTROL FOR STRESS PERIOD   22   TIME STEP   24
 
 SOLVING FOR HEAD 
                                                   Max.-Head-Change                         Max.-Flux-Residual
  Residual-Control   Outer-Iter.   Inner-Iter.     Column Row Layer    Maximum-Head-Change  Column Row Layer    Maximum-Flux-Residual          L2-NORM 
          0                 1           2             2    1     1       0.1805153450E-02       2    1    1         0.9379993224E-01      0.1807814194E+00
          0                 2           2             2    1     1      -0.1755923657E-03       2    1    1        -0.9380003791E-02      0.1800108325E-01
          0                 3           1             2    1     1       0.1195718763E-04       2    1    1         0.6566004221E-03      0.1253190948E-02

    ------------------------------------------------
       NWT REQUIRED            3 OUTER ITERATIONS 
       AND A TOTAL OF          5 INNER ITERATIONS.
    ------------------------------------------------

 NO OUTPUT CONTROL FOR STRESS PERIOD   22   TIME STEP   25
 
 SOLVING FOR HEAD 
                                                   Max.-Head-Change                         Max.-Flux-Residual
  Residual-Control   Outer-Iter.   Inner-Iter.     Column Row Layer    Maximum-Head-Change  Column Row Layer    Maximum-Flux-Residual          L2-NORM 
          0                 1           2             2    1     1       0.1801542998E-02       2    1    1         0.9361151884E-01      0.1780051276E+00
          0                 2           2             2    1     1      -0.1752411664E-03       2    1    1        -0.9361162358E-02      0.1773035543E-01
          0                 3           1             2    1     1       0.1193327321E-04       2    1    1         0.6552815610E-03      0.1234922914E-02

    ------------------------------------------------
       NWT REQUIRED            3 OUTER ITERATIONS 
       AND A TOTAL OF          5 INNER ITERATIONS.
    ------------------------------------------------

 NO OUTPUT CONTROL FOR STRESS PERIOD   22   TIME STEP   26
 
 SOLVING FOR HEAD 
                                                   Max.-Head-Change                         Max.-Flux-Residual
  Residual-Control   Outer-Iter.   Inner-Iter.     Column Row Layer    Maximum-Head-Change  Column Row Layer    Maximum-Flux-Residual          L2-NORM 
          0                 1           2             2    1     1       0.1797934217E-02       2    1    1         0.9342320298E-01      0.1754203355E+00
          0                 2           2             2    1     1      -0.1748901291E-03       2    1    1        -0.9342330705E-02      0.1747906503E-01
          0                 3           1             2    1     1       0.1190936898E-04       2    1    1         0.6539633364E-03      0.1217420300E-02

    ------------------------------------------------
       NWT REQUIRED            3 OUTER ITERATIONS 
       AND A TOTAL OF          5 INNER ITERATIONS.
    ------------------------------------------------

 NO OUTPUT CONTROL FOR STRESS PERIOD   22   TIME STEP   27
 
 SOLVING FOR HEAD 
                                                   Max.-Head-Change                         Max.-Flux-Residual
  Residual-Control   Outer-Iter.   Inner-Iter.     Column Row Layer    Maximum-Head-Change  Column Row Layer    Maximum-Flux-Residual          L2-NORM 
          0                 1           2             2    1     1       0.1794370003E-02       2    1    1         0.9323720904E-01      0.1730076988E+00
          0                 2           2             2    1     1      -0.1745434274E-03       2    1    1        -0.9323731245E-02      0.1724393775E-01
          0                 3           1             2    1     1       0.1188575987E-04       2    1    1         0.6526613817E-03      0.1201749799E-02

    ------------------------------------------------
       NWT REQUIRED            3 OUTER ITERATIONS 
       AND A TOTAL OF          5 INNER ITERATIONS.
    ------------------------------------------------

 NO OUTPUT CONTROL FOR STRESS PERIOD   22   TIME STEP   28
 
 SOLVING FOR HEAD 
                                                   Max.-Head-Change                         Max.-Flux-Residual
  Residual-Control   Outer-Iter.   Inner-Iter.     Column Row Layer    Maximum-Head-Change  Column Row Layer    Maximum-Flux-Residual          L2-NORM 
          0                 1           2             2    1     1       0.1790806939E-02       2    1    1         0.9305129048E-01      0.1707457079E+00
          0                 2           2             2    1     1      -0.1741968372E-03       2    1    1        -0.9305139296E-02      0.1702330472E-01
          0                 3           1             2    1     1       0.1186215881E-04       2    1    1         0.6513599515E-03      0.1187215376E-02

    ------------------------------------------------
       NWT REQUIRED            3 OUTER ITERATIONS 
       AND A TOTAL OF          5 INNER ITERATIONS.
    ------------------------------------------------

 NO OUTPUT CONTROL FOR STRESS PERIOD   22   TIME STEP   29
 
 SOLVING FOR HEAD 
                                                   Max.-Head-Change                         Max.-Flux-Residual
  Residual-Control   Outer-Iter.   Inner-Iter.     Column Row Layer    Maximum-Head-Change  Column Row Layer    Maximum-Flux-Residual          L2-NORM 
          0                 1           2             2    1     1       0.1787105696E-02       2    1    1         0.9286654929E-01      0.1756724486E+00
          0                 2           2             2    1     1      -0.1738368096E-03       2    1    1        -0.9286665365E-02      0.1749369726E-01
          0                 3           1             2    1     1       0.1183764135E-04       2    1    1         0.6500667514E-03      0.1217587175E-02

    ------------------------------------------------
       NWT REQUIRED            3 OUTER ITERATIONS 
       AND A TOTAL OF          5 INNER ITERATIONS.
    ------------------------------------------------

 NO OUTPUT CONTROL FOR STRESS PERIOD   22   TIME STEP   30



 STREAM LISTING     PERIOD     22   STEP       30

 LAYER ROW COL. STREAM  RCH.  FLOW INTO     FLOW TO   FLOW OUT OF   OVRLND.     DIRECT     STREAM       STREAM     STREAM     STREAM   STREAMBED  STREAMBED
                SEG.NO.  NO.  STRM. RCH.    AQUIFER    STRM. RCH.    RUNOFF     PRECIP       ET          HEAD       DEPTH      WIDTH   CONDCTNC.   GRADIENT

   1    1    1     1     1    1.8324E+01  2.0985E-01   1.8114E+01  0.000E+00  0.000E+00  0.000E+00  1.09412E+03  1.071E+00  1.146E+01  5.155E-02  1.357E+00
   1    2    2     1     2    1.8114E+01  3.2368E-01   1.7790E+01  0.000E+00  0.000E+00  0.000E+00  1.08912E+03  1.066E+00  1.137E+01  7.960E-02  1.355E+00
   1    3    3     1     3    1.7790E+01  2.7478E-01   1.7515E+01  0.000E+00  0.000E+00  0.000E+00  1.08348E+03  1.061E+00  1.128E+01  6.766E-02  1.354E+00
   1    3    4     1     4    1.7515E+01  2.5199E-01   1.7263E+01  0.000E+00  0.000E+00  0.000E+00  1.07846E+03  1.056E+00  1.119E+01  6.212E-02  1.352E+00
   1    4    5     2     1    1.5263E+01  3.0363E-01   1.4960E+01  0.000E+00  0.000E+00  0.000E+00  1.07283E+03  8.927E-01  1.200E+01  7.800E-02  1.298E+00
   1    5    6     2     2    1.4960E+01  2.3299E-01   1.4727E+01  0.000E+00  0.000E+00  0.000E+00  1.06739E+03  8.832E-01  1.200E+01  6.000E-02  1.294E+00
   1    6    6     2     3    1.4727E+01  2.3249E-01   1.4494E+01  0.000E+00  0.000E+00  0.000E+00  1.06267E+03  8.749E-01  1.200E+01  6.000E-02  1.292E+00
   1    7    6     2     4    1.4494E+01  2.3199E-01   1.4262E+01  0.000E+00  0.000E+00  0.000E+00  1.05794E+03  8.665E-01  1.200E+01  6.000E-02  1.289E+00
   1    8    6     2     5    1.4262E+01  2.3149E-01   1.4031E+01  0.000E+00  0.000E+00  0.000E+00  1.05322E+03  8.581E-01  1.200E+01  6.000E-02  1.286E+00
   1    3    5     3     1    2.0000E+00  2.8252E-01   1.7175E+00  0.000E+00  0.000E+00  0.000E+00  1.07555E+03  1.909E+00  9.636E+00  7.227E-02  1.955E+00
   1    3    6     3     2    1.7175E+00  2.4905E-01   1.4684E+00  0.000E+00  0.000E+00  0.000E+00  1.07264E+03  1.727E+00  8.909E+00  6.682E-02  1.864E+00
   1    3    7     3     3    1.4684E+00  1.9718E-01   1.2712E+00  0.000E+00  0.000E+00  0.000E+00  1.06987E+03  1.555E+00  8.218E+00  5.547E-02  1.777E+00
   1    4    8     3     4    1.2712E+00  2.2567E-01   1.0456E+00  0.000E+00  0.000E+00  0.000E+00  1.06682E+03  1.364E+00  7.455E+00  6.709E-02  1.682E+00
   1    5    8     3     5    1.0456E+00  1.5790E-01   8.8768E-01  0.000E+00  0.000E+00  0.000E+00  1.06362E+03  1.164E+00  6.655E+00  4.991E-02  1.582E+00
   1    6    8     3     6    8.8768E-01  5.5980E-02   8.3170E-01  0.000E+00  0.000E+00  0.000E+00  1.06158E+03  1.036E+00  6.145E+00  1.844E-02  1.518E+00
   1    5   10     4     1    1.0000E+01  9.0919E-02   9.9091E+00  0.000E+00  0.000E+00  0.000E+00  1.07836E+03  6.368E-01  1.000E+01  2.500E-02  1.212E+00
   1    5    9     4     2    9.9091E+00  1.8158E-01   9.7275E+00  0.000E+00  0.000E+00  0.000E+00  1.07154E+03  6.315E-01  1.000E+01  5.000E-02  1.211E+00
   1    6    8     4     3    9.7275E+00  1.2689E-01   9.6006E+00  0.000E+00  0.000E+00  0.000E+00  1.06381E+03  6.256E-01  1.000E+01  3.500E-02  1.209E+00
   1    6    8     5     1    1.0432E+01  2.2686E-01   1.0205E+01  0.000E+00  0.000E+00  0.000E+00  1.05868E+03  6.790E-01  1.542E+01  6.166E-02  1.226E+00
   1    7    7     5     2    1.0205E+01  2.7894E-01   9.9265E+00  0.000E+00  0.000E+00  0.000E+00  1.05417E+03  6.732E-01  1.519E+01  7.594E-02  1.224E+00
   1    8    7     5     3    9.9265E+00  1.9221E-01   9.7343E+00  0.000E+00  0.000E+00  0.000E+00  1.04992E+03  6.676E-01  1.497E+01  5.241E-02  1.223E+00
   1    8    6     5     4    9.7343E+00  1.3577E-01   9.5985E+00  0.000E+00  0.000E+00  0.000E+00  1.04691E+03  6.637E-01  1.482E+01  3.706E-02  1.221E+00
   1    9    6     6     1    2.3629E+01  2.5060E-01   2.3379E+01  0.000E+00  0.000E+00  0.000E+00  1.04390E+03  1.177E+00  1.200E+01  6.000E-02  1.392E+00
   1   10    7     6     2    2.3379E+01  2.5015E-01   2.3128E+01  0.000E+00  0.000E+00  0.000E+00  1.03935E+03  1.169E+00  1.200E+01  6.000E-02  1.390E+00
   1   11    7     6     3    2.3128E+01  2.4969E-01   2.2879E+01  0.000E+00  0.000E+00  0.000E+00  1.03480E+03  1.162E+00  1.200E+01  6.000E-02  1.387E+00
   1   12    7     6     4    2.2879E+01  2.4924E-01   2.2629E+01  0.000E+00  0.000E+00  0.000E+00  1.03024E+03  1.154E+00  1.200E+01  6.000E-02  1.385E+00
   1   13    7     6     5    2.2629E+01 -2.9086E-02   2.2659E+01  0.000E+00  0.000E+00  0.000E+00  1.02706E+03  1.151E+00  1.200E+01  2.400E-01 -4.040E-02
   1   14    9     7     1    1.5000E+02  1.3331E+00   1.4867E+02  0.000E+00  0.000E+00  0.000E+00  1.03987E+03  2.288E+00  5.529E+01  5.593E-01  7.945E-01
   1   13    8     7     2    1.4867E+02  1.8058E+00   1.4686E+02  0.000E+00  0.000E+00  0.000E+00  1.03478E+03  2.279E+00  5.526E+01  6.148E-01  9.791E-01
   1   13    7     7     3    1.4686E+02  1.4013E+00   1.4546E+02  0.000E+00  0.000E+00  0.000E+00  1.02969E+03  2.271E+00  5.522E+01  5.585E-01  8.364E-01
   1   13    6     8     1    1.6812E+02  8.3510E-01   1.6728E+02  0.000E+00  0.000E+00  0.000E+00  1.02481E+03  2.937E+00  4.259E+01  4.340E-01  6.414E-01
   1   13    5     8     2    1.6728E+02  9.2705E-02   1.6719E+02  0.000E+00  0.000E+00  0.000E+00  1.01856E+03  2.934E+00  4.254E+01  4.335E-01  7.128E-02
   1   13    4     8     3    1.6719E+02 -2.7292E+00   1.6992E+02  0.000E+00  0.000E+00  0.000E+00  1.01232E+03  2.943E+00  4.267E+01  4.348E+00 -2.092E-01
   1   13    3     8     4    1.6992E+02 -3.7944E+00   1.7371E+02  0.000E+00  0.000E+00  0.000E+00  1.00609E+03  2.964E+00  4.298E+01  4.380E+00 -2.888E-01
   1   13    2     8     5    1.7371E+02 -2.6317E+00   1.7635E+02  0.000E+00  0.000E+00  0.000E+00  9.99860E+02  2.985E+00  4.328E+01  4.410E+00 -1.989E-01
   1   13    1     8     6    1.7635E+02 -2.0204E+00   1.7837E+02  0.000E+00  0.000E+00  0.000E+00  9.94874E+02  2.999E+00  4.349E+01  2.659E+00 -2.533E-01
   1    8    6     9     1    0.0000E+00  0.0000E+00   0.0000E+00  0.000E+00  0.000E+00  0.000E+00  1.07875E+03  0.000E+00  4.000E+00  0.000E+00  1.000E+00
   1    8    5     9     2    0.0000E+00  0.0000E+00   0.0000E+00  0.000E+00  0.000E+00  0.000E+00  1.07825E+03  0.000E+00  4.000E+00  0.000E+00  1.000E+00





UNSATURATED ZONE PACKAGE VOLUMETRIC BUDGET FOR  TIME STEP    30 STRESS PERIOD   22
  ------------------------------------------------------------------------------



     CUMULATIVE VOLUMES      L**3       RATES FOR THIS TIME STEP      L**3/T
     ------------------                 ------------------------

           IN:                                      IN:
           ---                                      ---
        INFILTRATION =   244348259.3806          INFILTRATION =           4.4075

          OUT:                                     OUT:
          ----                                     ----
              UZF ET =   188453885.6259                UZF ET =           4.4075
        UZF RECHARGE =      674797.3606          UZF RECHARGE =       0.0000E+00

            IN - OUT =    55219576.3942              IN - OUT =       0.0000E+00

          STORAGE:                                 STORAGE:
          --------                                 --------
      STORAGE CHANGE =    55220222.8207        STORAGE CHANGE =       9.3785E-15

 PERCENT DISCREPANCY IS DIFFERENCE BETWEEN IN-OUT MINUS CHANGE IN STORAGE
 DIVIDED BY THE AVERAGE OF IN AND OUT TIMES 100

 PERCENT DISCREPANCY =          -0.00     PERCENT DISCREPANCY =           0.00






1
  VOLUMETRIC BUDGET FOR ENTIRE MODEL AT END OF TIME STEP   30, STRESS PERIOD  22
  ------------------------------------------------------------------------------

     CUMULATIVE VOLUMES      L**3       RATES FOR THIS TIME STEP      L**3/T
     ------------------                 ------------------------

           IN:                                      IN:
           ---                                      ---
               AG WELLS  =           0.0000                 AG WELLS  =           0.0000
        DIVERSION SEGMEN =      848802.5000          DIVERSION SEGMEN =           0.0000
    TS         GW IRRIGA =           0.0000      TS         GW IRRIGA =           0.0000
    TION         SW IRRI =           0.0000      TION         SW IRRI =           0.0000
    GATION      SYSTEM L =           0.0000      GATION      SYSTEM L =           0.0000
    OSSES GW      SYSTEM =           0.1856      OSSES GW      SYSTEM =           0.0000

                TOTAL IN =      848802.6875                  TOTAL IN =           0.0000

          OUT:                                     OUT:
          ----                                     ----
               AG WELLS  =           0.0000                 AG WELLS  =           0.0000
        DIVERSION SEGMEN =           0.0000          DIVERSION SEGMEN =           0.0000
    TS         GW IRRIGA =           0.0000      TS         GW IRRIGA =           0.0000
    TION         SW IRRI =      848819.6875      TION         SW IRRI =           0.0000
    GATION      SYSTEM L =           0.0000      GATION      SYSTEM L =           0.0000
    OSSES GW      SYSTEM =           0.0000      OSSES GW      SYSTEM =           0.0000

               TOTAL OUT =      848819.6875                 TOTAL OUT =           0.0000

                IN - OUT =         -17.0000                  IN - OUT =           0.0000

     PERCENT DISCREPANCY =          -0.00         PERCENT DISCREPANCY =           0.00



1
  VOLUMETRIC BUDGET FOR ENTIRE MODEL AT END OF TIME STEP   30, STRESS PERIOD  22
  ------------------------------------------------------------------------------

     CUMULATIVE VOLUMES      L**3       RATES FOR THIS TIME STEP      L**3/T
     ------------------                 ------------------------

           IN:                                      IN:
           ---                                      ---
             STORAGE     =    30819786.0000               STORAGE     =           0.6007
       CONSTANT HEAD     =           0.0000         CONSTANT HEAD     =           0.0000
     HEAD DEP BOUNDS     =    15802425.0000       HEAD DEP BOUNDS     =           0.2856
      STREAM LEAKAGE     =   665156544.0000        STREAM LEAKAGE     =          11.1621
        UZF RECHARGE     =      674797.2500          UZF RECHARGE     =           0.0000
               GW ET     =           0.0000                 GW ET     =           0.0000
     SURFACE LEAKAGE     =           0.0000       SURFACE LEAKAGE     =           0.0000
           AG WELLS      =           0.0000             AG WELLS      =           0.0000

                TOTAL IN =   712453568.0000                  TOTAL IN =          12.0483

          OUT:                                     OUT:
          ----                                     ----
             STORAGE     =    94184488.0000               STORAGE     =           0.5535
       CONSTANT HEAD     =           0.0000         CONSTANT HEAD     =           0.0000
     HEAD DEP BOUNDS     =    16187701.0000       HEAD DEP BOUNDS     =           0.2901
      STREAM LEAKAGE     =   592604608.0000        STREAM LEAKAGE     =          11.2047
        UZF RECHARGE     =           0.0000          UZF RECHARGE     =           0.0000
               GW ET     =     9490485.0000                 GW ET     =           0.0000
     SURFACE LEAKAGE     =           0.0000       SURFACE LEAKAGE     =           0.0000
           AG WELLS      =           0.0000             AG WELLS      =           0.0000

               TOTAL OUT =   712467264.0000                 TOTAL OUT =          12.0483

                IN - OUT =      -13696.0000                  IN - OUT =       1.7166E-05

     PERCENT DISCREPANCY =          -0.00         PERCENT DISCREPANCY =           0.00






         TIME SUMMARY AT END OF TIME STEP   30 IN STRESS PERIOD   22
                    SECONDS     MINUTES      HOURS       DAYS        YEARS
                    -----------------------------------------------------------
   TIME STEP LENGTH  87667.      1461.1      24.352      1.0147     2.77799E-03
 STRESS PERIOD TIME 2.63000E+06  43833.      730.56      30.440     8.33397E-02
         TOTAL TIME 5.53166E+07 9.21944E+05  15366.      640.24      1.7529    
1
1
                            STRESS PERIOD NO.   23, LENGTH =   2630000.    
                            -----------------------------------------------

                              NUMBER OF TIME STEPS =    30

                               MULTIPLIER FOR DELT =     1.000

                            INITIAL TIME STEP SIZE =   87666.66    

 REUSING NON-PARAMETER GHB CELLS FROM LAST STRESS PERIOD

      2 GHB CELLS

 REUSING STREAM SEGMENT DATA FROM LAST STRESS PERIOD



            AREAL INFILTRATION RATE
 READING ON UNIT   19 WITH FORMAT: (10F4.0)            

            1           2           3           4           5           6           7           8           9          10
 ........................................................................................................................
   1   1.2000E-09   0.000       0.000       0.000       0.000       0.000       0.000       0.000       0.000       0.000    
   2   2.1000E-09  2.0000E-09  8.0000E-10  8.5000E-09   0.000       0.000       0.000       0.000       0.000       0.000    
   3   5.0000E-10  1.1000E-09  8.8000E-09  5.5000E-09   0.000       0.000       0.000       0.000       0.000       0.000    
   4   8.5000E-09  1.1000E-09  1.1000E-09  1.1000E-09  2.0000E-09   0.000       0.000       0.000       0.000       0.000    
   5   8.5000E-09  1.1000E-09  1.1000E-09  1.1000E-09  1.1000E-09   0.000       0.000       0.000       0.000       0.000    
   6   8.5000E-09  5.2000E-09  2.1000E-09  1.1000E-09  1.5000E-09   0.000       0.000       0.000       0.000       0.000    
   7   8.5000E-09  5.2000E-09  2.1000E-09  1.2000E-09  2.0000E-09   0.000       0.000       0.000       0.000       0.000    
   8   5.0000E-10  5.2000E-09  2.1000E-09  1.2000E-09  5.0000E-09   0.000       0.000       0.000       0.000       0.000    
   9   5.0000E-10  5.2000E-09  2.1000E-09  1.2000E-09  5.0000E-09   0.000       0.000       0.000       0.000       0.000    
  10   5.0000E-10  5.2000E-09  2.1000E-09  1.2000E-09  5.8000E-09   0.000       0.000       0.000       0.000       0.000    
  11   1.0000E-10  1.1000E-09  1.1000E-09  1.2000E-09  5.0000E-09   0.000       0.000       0.000       0.000       0.000    
  12   1.1000E-09  1.1000E-09  1.1000E-09  1.1000E-09  2.0000E-09   0.000       0.000       0.000       0.000       0.000    
  13   1.1000E-09  2.2000E-09  2.2000E-09  2.1000E-09  1.0000E-09   0.000       0.000       0.000       0.000       0.000    
  14   2.0000E-10  5.5000E-09  5.5000E-09  5.2000E-09  1.0000E-09   0.000       0.000       0.000       0.000       0.000    
  15    0.000      8.8000E-09  8.8000E-09   0.000       0.000       0.000       0.000       0.000       0.000       0.000    

                  ET RATE =  5.000000E-09

 USING ET EXTINCTION DEPTH FROM PREVIOUS STRESS PERIOD. CURRENT PERIOD IS:      23

 USING EXTINCTION WATER CONTENT FROM PREVIOUS STRESS PERIOD. CURRENT PERIOD IS:      23

 USING AIR ENTRY PRESSURE FROM PREVIOUS STRESS PERIOD. CURRENT PERIOD IS:      23

 USING ROOT PRESSURE HEAD FROM PREVIOUS STRESS PERIOD. CURRENT PERIOD IS:      23

 USING ROOT ACTIVITY FROM PREVIOUS STRESS PERIOD. CURRENT PERIOD IS:      23

 PROCESSING AG STRESS PERIOD DATA

 READING AG STRESS PERIOD DATA

 READING IRRIGATION SEGMENT

 READING IRRIGATION WELL

 READING SUPPLEMENTAL WELL

 END PROCESSING AG STRESS PERIOD DATA OPTIONS
 
 SOLVING FOR HEAD 
                                                   Max.-Head-Change                         Max.-Flux-Residual
  Residual-Control   Outer-Iter.   Inner-Iter.     Column Row Layer    Maximum-Head-Change  Column Row Layer    Maximum-Flux-Residual          L2-NORM 
          0                 1           2             2    1     1       0.1782745155E-02       2    1    1         0.9267575885E-01      0.2159164023E+00
          0                 2           2             2    1     1      -0.1734126627E-03       2    1    1        -0.9267587290E-02      0.2137497816E-01
          0                 3           1             2    1     1       0.1180875775E-04       2    1    1         0.6487312745E-03      0.1477550848E-02

    ------------------------------------------------
       NWT REQUIRED            3 OUTER ITERATIONS 
       AND A TOTAL OF          5 INNER ITERATIONS.
    ------------------------------------------------

 NO OUTPUT CONTROL FOR STRESS PERIOD   23   TIME STEP    1
 
 SOLVING FOR HEAD 
                                                   Max.-Head-Change                         Max.-Flux-Residual
  Residual-Control   Outer-Iter.   Inner-Iter.     Column Row Layer    Maximum-Head-Change  Column Row Layer    Maximum-Flux-Residual          L2-NORM 
          0                 1           2             2    1     1       0.1778391319E-02       2    1    1         0.9244853977E-01      0.2097701257E+00
          0                 2           2             2    1     1      -0.1729891520E-03       2    1    1        -0.9244865291E-02      0.2078188291E-01
          0                 3           1             2    1     1       0.1177991840E-04       2    1    1         0.6471407531E-03      0.1436243104E-02

    ------------------------------------------------
       NWT REQUIRED            3 OUTER ITERATIONS 
       AND A TOTAL OF          5 INNER ITERATIONS.
    ------------------------------------------------

 NO OUTPUT CONTROL FOR STRESS PERIOD   23   TIME STEP    2
 
 SOLVING FOR HEAD 
                                                   Max.-Head-Change                         Max.-Flux-Residual
  Residual-Control   Outer-Iter.   Inner-Iter.     Column Row Layer    Maximum-Head-Change  Column Row Layer    Maximum-Flux-Residual          L2-NORM 
          0                 1           2             2    1     1       0.1774065752E-02       2    1    1         0.9222279768E-01      0.2041872411E+00
          0                 2           2             2    1     1      -0.1725683910E-03       2    1    1        -0.9222290997E-02      0.2024453727E-01
          0                 3           1             2    1     1       0.1175126626E-04       2    1    1         0.6455605467E-03      0.1400653927E-02

    ------------------------------------------------
       NWT REQUIRED            3 OUTER ITERATIONS 
       AND A TOTAL OF          5 INNER ITERATIONS.
    ------------------------------------------------

 NO OUTPUT CONTROL FOR STRESS PERIOD   23   TIME STEP    3
 
 SOLVING FOR HEAD 
                                                   Max.-Head-Change                         Max.-Flux-Residual
  Residual-Control   Outer-Iter.   Inner-Iter.     Column Row Layer    Maximum-Head-Change  Column Row Layer    Maximum-Flux-Residual          L2-NORM 
          0                 1           2             2    1     1       0.1769768042E-02       2    1    1         0.9199852129E-01      0.1990929604E+00
          0                 2           2             2    1     1      -0.1721503400E-03       2    1    1        -0.9199863264E-02      0.1975272229E-01
          0                 3           1             2    1     1       0.1172279896E-04       2    1    1         0.6439906244E-03      0.1367478105E-02

    ------------------------------------------------
       NWT REQUIRED            3 OUTER ITERATIONS 
       AND A TOTAL OF          5 INNER ITERATIONS.
    ------------------------------------------------

 NO OUTPUT CONTROL FOR STRESS PERIOD   23   TIME STEP    4
 
 SOLVING FOR HEAD 
                                                   Max.-Head-Change                         Max.-Flux-Residual
  Residual-Control   Outer-Iter.   Inner-Iter.     Column Row Layer    Maximum-Head-Change  Column Row Layer    Maximum-Flux-Residual          L2-NORM 
          0                 1           2             2    1     1       0.1765497982E-02       2    1    1         0.9177568928E-01      0.1944497847E+00
          0                 2           2             2    1     1      -0.1717349776E-03       2    1    1        -0.9177579968E-02      0.1930493754E-01
          0                 3           1             2    1     1       0.1169451390E-04       2    1    1         0.6424307673E-03      0.1338187996E-02

    ------------------------------------------------
       NWT REQUIRED            3 OUTER ITERATIONS 
       AND A TOTAL OF          5 INNER ITERATIONS.
    ------------------------------------------------

 NO OUTPUT CONTROL FOR STRESS PERIOD   23   TIME STEP    5
 
 SOLVING FOR HEAD 
                                                   Max.-Head-Change                         Max.-Flux-Residual
  Residual-Control   Outer-Iter.   Inner-Iter.     Column Row Layer    Maximum-Head-Change  Column Row Layer    Maximum-Flux-Residual          L2-NORM 
          0                 1           2             2    1     1       0.1761276682E-02       2    1    1         0.9155540903E-01      0.1901907169E+00
          0                 2           2             2    1     1      -0.1713243588E-03       2    1    1        -0.9155551853E-02      0.1889291814E-01
          0                 3           1             2    1     1       0.1166655238E-04       2    1    1         0.6408888034E-03      0.1310790134E-02

    ------------------------------------------------
       NWT REQUIRED            3 OUTER ITERATIONS 
       AND A TOTAL OF          5 INNER ITERATIONS.
    ------------------------------------------------

 NO OUTPUT CONTROL FOR STRESS PERIOD   23   TIME STEP    6
 
 SOLVING FOR HEAD 
                                                   Max.-Head-Change                         Max.-Flux-Residual
  Residual-Control   Outer-Iter.   Inner-Iter.     Column Row Layer    Maximum-Head-Change  Column Row Layer    Maximum-Flux-Residual          L2-NORM 
          0                 1           2             2    1     1       0.1757060835E-02       2    1    1         0.9133542062E-01      0.1862767571E+00
          0                 2           2             2    1     1      -0.1709142707E-03       2    1    1        -0.9133552924E-02      0.1851463864E-01
          0                 3           1             2    1     1       0.1163862706E-04       2    1    1         0.6393488843E-03      0.1285812131E-02

    ------------------------------------------------
       NWT REQUIRED            3 OUTER ITERATIONS 
       AND A TOTAL OF          5 INNER ITERATIONS.
    ------------------------------------------------

 NO OUTPUT CONTROL FOR STRESS PERIOD   23   TIME STEP    7
 
 SOLVING FOR HEAD 
                                                   Max.-Head-Change                         Max.-Flux-Residual
  Residual-Control   Outer-Iter.   Inner-Iter.     Column Row Layer    Maximum-Head-Change  Column Row Layer    Maximum-Flux-Residual          L2-NORM 
          0                 1           2             2    1     1       0.1752871741E-02       2    1    1         0.9111683311E-01      0.1826848627E+00
          0                 2           2             2    1     1      -0.1705067848E-03       2    1    1        -0.9111694099E-02      0.1816717007E-01
          0                 3           1             2    1     1       0.1161087878E-04       2    1    1         0.6378187546E-03      0.1262638328E-02

    ------------------------------------------------
       NWT REQUIRED            3 OUTER ITERATIONS 
       AND A TOTAL OF          5 INNER ITERATIONS.
    ------------------------------------------------

 NO OUTPUT CONTROL FOR STRESS PERIOD   23   TIME STEP    8
 
 SOLVING FOR HEAD 
                                                   Max.-Head-Change                         Max.-Flux-Residual
  Residual-Control   Outer-Iter.   Inner-Iter.     Column Row Layer    Maximum-Head-Change  Column Row Layer    Maximum-Flux-Residual          L2-NORM 
          0                 1           2             2    1     1       0.1748709110E-02       2    1    1         0.9089963272E-01      0.1793648153E+00
          0                 2           2             2    1     1      -0.1701018729E-03       2    1    1        -0.9089973974E-02      0.1784491084E-01
          0                 3           1             2    1     1       0.1158330563E-04       2    1    1         0.6362983501E-03      0.1240630607E-02

    ------------------------------------------------
       NWT REQUIRED            3 OUTER ITERATIONS 
       AND A TOTAL OF          5 INNER ITERATIONS.
    ------------------------------------------------

 NO OUTPUT CONTROL FOR STRESS PERIOD   23   TIME STEP    9
 
 SOLVING FOR HEAD 
                                                   Max.-Head-Change                         Max.-Flux-Residual
  Residual-Control   Outer-Iter.   Inner-Iter.     Column Row Layer    Maximum-Head-Change  Column Row Layer    Maximum-Flux-Residual          L2-NORM 
          0                 1           2             2    1     1       0.1744572653E-02       2    1    1         0.9068380436E-01      0.1762916009E+00
          0                 2           2             2    1     1      -0.1696995075E-03       2    1    1        -0.9068391056E-02      0.1754734339E-01
          0                 3           1             2    1     1       0.1155590620E-04       2    1    1         0.6347875562E-03      0.1220599861E-02

    ------------------------------------------------
       NWT REQUIRED            3 OUTER ITERATIONS 
       AND A TOTAL OF          5 INNER ITERATIONS.
    ------------------------------------------------

 NO OUTPUT CONTROL FOR STRESS PERIOD   23   TIME STEP   10
 
 SOLVING FOR HEAD 
                                                   Max.-Head-Change                         Max.-Flux-Residual
  Residual-Control   Outer-Iter.   Inner-Iter.     Column Row Layer    Maximum-Head-Change  Column Row Layer    Maximum-Flux-Residual          L2-NORM 
          0                 1           2             2    1     1       0.1740462189E-02       2    1    1         0.9046933318E-01      0.1734376434E+00
          0                 2           2             2    1     1      -0.1692996701E-03       2    1    1        -0.9046943855E-02      0.1727001597E-01
          0                 3           1             2    1     1       0.1152867907E-04       2    1    1         0.6332862585E-03      0.1201889463E-02

    ------------------------------------------------
       NWT REQUIRED            3 OUTER ITERATIONS 
       AND A TOTAL OF          5 INNER ITERATIONS.
    ------------------------------------------------

 NO OUTPUT CONTROL FOR STRESS PERIOD   23   TIME STEP   11
 
 SOLVING FOR HEAD 
                                                   Max.-Head-Change                         Max.-Flux-Residual
  Residual-Control   Outer-Iter.   Inner-Iter.     Column Row Layer    Maximum-Head-Change  Column Row Layer    Maximum-Flux-Residual          L2-NORM 
          0                 1           2             2    1     1       0.1736377338E-02       2    1    1         0.9025620964E-01      0.1707870166E+00
          0                 2           2             2    1     1      -0.1689023238E-03       2    1    1        -0.9025631395E-02      0.1701294929E-01
          0                 3           1             2    1     1       0.1150162116E-04       2    1    1         0.6317943783E-03      0.1185376207E-02

    ------------------------------------------------
       NWT REQUIRED            3 OUTER ITERATIONS 
       AND A TOTAL OF          5 INNER ITERATIONS.
    ------------------------------------------------

 NO OUTPUT CONTROL FOR STRESS PERIOD   23   TIME STEP   12
 
 SOLVING FOR HEAD 
                                                   Max.-Head-Change                         Max.-Flux-Residual
  Residual-Control   Outer-Iter.   Inner-Iter.     Column Row Layer    Maximum-Head-Change  Column Row Layer    Maximum-Flux-Residual          L2-NORM 
          0                 1           2             2    1     1       0.1732317827E-02       2    1    1         0.9004441416E-01      0.1683139078E+00
          0                 2           2             2    1     1      -0.1685074432E-03       2    1    1        -0.9004451784E-02      0.1677154772E-01
          0                 3           1             2    1     1       0.1147473153E-04       2    1    1         0.6303118112E-03      0.1167890023E-02

    ------------------------------------------------
       NWT REQUIRED            3 OUTER ITERATIONS 
       AND A TOTAL OF          5 INNER ITERATIONS.
    ------------------------------------------------

 NO OUTPUT CONTROL FOR STRESS PERIOD   23   TIME STEP   13
 
 SOLVING FOR HEAD 
                                                   Max.-Head-Change                         Max.-Flux-Residual
  Residual-Control   Outer-Iter.   Inner-Iter.     Column Row Layer    Maximum-Head-Change  Column Row Layer    Maximum-Flux-Residual          L2-NORM 
          0                 1           2             2    1     1       0.1728283484E-02       2    1    1         0.8983393252E-01      0.1659963703E+00
          0                 2           2             2    1     1      -0.1681150101E-03       2    1    1        -0.8983403546E-02      0.1654536823E-01
          0                 3           1             2    1     1       0.1144800780E-04       2    1    1         0.6288384120E-03      0.1152935456E-02

    ------------------------------------------------
       NWT REQUIRED            3 OUTER ITERATIONS 
       AND A TOTAL OF          5 INNER ITERATIONS.
    ------------------------------------------------

 NO OUTPUT CONTROL FOR STRESS PERIOD   23   TIME STEP   14
 
 SOLVING FOR HEAD 
                                                   Max.-Head-Change                         Max.-Flux-Residual
  Residual-Control   Outer-Iter.   Inner-Iter.     Column Row Layer    Maximum-Head-Change  Column Row Layer    Maximum-Flux-Residual          L2-NORM 
          0                 1           2             2    1     1       0.1724273942E-02       2    1    1         0.8962475580E-01      0.1638241295E+00
          0                 2           2             2    1     1      -0.1677249898E-03       2    1    1        -0.8962485787E-02      0.1633380476E-01
          0                 3           1             2    1     1       0.1142144880E-04       2    1    1         0.6273741681E-03      0.1139498970E-02

    ------------------------------------------------
       NWT REQUIRED            3 OUTER ITERATIONS 
       AND A TOTAL OF          5 INNER ITERATIONS.
    ------------------------------------------------

 NO OUTPUT CONTROL FOR STRESS PERIOD   23   TIME STEP   15
 
 SOLVING FOR HEAD 
                                                   Max.-Head-Change                         Max.-Flux-Residual
  Residual-Control   Outer-Iter.   Inner-Iter.     Column Row Layer    Maximum-Head-Change  Column Row Layer    Maximum-Flux-Residual          L2-NORM 
          0                 1           2             2    1     1       0.1720267513E-02       2    1    1         0.8941574630E-01      0.1617787503E+00
          0                 2           2             2    1     1      -0.1673352728E-03       2    1    1        -0.8941584782E-02      0.1613396700E-01
          0                 3           1             2    1     1       0.1139491087E-04       2    1    1         0.6259111051E-03      0.1125578411E-02

    ------------------------------------------------
       NWT REQUIRED            3 OUTER ITERATIONS 
       AND A TOTAL OF          5 INNER ITERATIONS.
    ------------------------------------------------

 NO OUTPUT CONTROL FOR STRESS PERIOD   23   TIME STEP   16
 
 SOLVING FOR HEAD 
                                                   Max.-Head-Change                         Max.-Flux-Residual
  Residual-Control   Outer-Iter.   Inner-Iter.     Column Row Layer    Maximum-Head-Change  Column Row Layer    Maximum-Flux-Residual          L2-NORM 
          0                 1           2             2    1     1       0.1716307038E-02       2    1    1         0.8920913565E-01      0.1598507728E+00
          0                 2           2             2    1     1      -0.1669500253E-03       2    1    1        -0.8920923631E-02      0.1594488105E-01
          0                 3           1             2    1     1       0.1136867705E-04       2    1    1         0.6244648235E-03      0.1112016395E-02

    ------------------------------------------------
       NWT REQUIRED            3 OUTER ITERATIONS 
       AND A TOTAL OF          5 INNER ITERATIONS.
    ------------------------------------------------

 NO OUTPUT CONTROL FOR STRESS PERIOD   23   TIME STEP   17
 
 SOLVING FOR HEAD 
                                                   Max.-Head-Change                         Max.-Flux-Residual
  Residual-Control   Outer-Iter.   Inner-Iter.     Column Row Layer    Maximum-Head-Change  Column Row Layer    Maximum-Flux-Residual          L2-NORM 
          0                 1           2             2    1     1       0.1712370682E-02       2    1    1         0.8900378890E-01      0.1580330822E+00
          0                 2           2             2    1     1      -0.1665671240E-03       2    1    1        -0.8900388876E-02      0.1576679715E-01
          0                 3           1             2    1     1       0.1134260300E-04       2    1    1         0.6230273991E-03      0.1100194318E-02

    ------------------------------------------------
       NWT REQUIRED            3 OUTER ITERATIONS 
       AND A TOTAL OF          5 INNER ITERATIONS.
    ------------------------------------------------

 NO OUTPUT CONTROL FOR STRESS PERIOD   23   TIME STEP   18
 
 SOLVING FOR HEAD 
                                                   Max.-Head-Change                         Max.-Flux-Residual
  Residual-Control   Outer-Iter.   Inner-Iter.     Column Row Layer    Maximum-Head-Change  Column Row Layer    Maximum-Flux-Residual          L2-NORM 
          0                 1           2             2    1     1       0.1708458195E-02       2    1    1         0.8879969277E-01      0.1563123695E+00
          0                 2           2             2    1     1      -0.1661865445E-03       2    1    1        -0.8879979186E-02      0.1559844756E-01
          0                 3           1             2    1     1       0.1131668680E-04       2    1    1         0.6215987160E-03      0.1089160960E-02

    ------------------------------------------------
       NWT REQUIRED            3 OUTER ITERATIONS 
       AND A TOTAL OF          5 INNER ITERATIONS.
    ------------------------------------------------

 NO OUTPUT CONTROL FOR STRESS PERIOD   23   TIME STEP   19
 
 SOLVING FOR HEAD 
                                                   Max.-Head-Change                         Max.-Flux-Residual
  Residual-Control   Outer-Iter.   Inner-Iter.     Column Row Layer    Maximum-Head-Change  Column Row Layer    Maximum-Flux-Residual          L2-NORM 
          0                 1           2             2    1     1       0.1704569325E-02       2    1    1         0.8859683414E-01      0.1546711184E+00
          0                 2           2             2    1     1      -0.1658082626E-03       2    1    1        -0.8859693253E-02      0.1543719256E-01
          0                 3           1             2    1     1       0.1129092752E-04       2    1    1         0.6201787138E-03      0.1077890836E-02

    ------------------------------------------------
       NWT REQUIRED            3 OUTER ITERATIONS 
       AND A TOTAL OF          5 INNER ITERATIONS.
    ------------------------------------------------

 NO OUTPUT CONTROL FOR STRESS PERIOD   23   TIME STEP   20
 
 SOLVING FOR HEAD 
                                                   Max.-Head-Change                         Max.-Flux-Residual
  Residual-Control   Outer-Iter.   Inner-Iter.     Column Row Layer    Maximum-Head-Change  Column Row Layer    Maximum-Flux-Residual          L2-NORM 
          0                 1           2             2    1     1       0.1700682298E-02       2    1    1         0.8839408108E-01      0.1531170805E+00
          0                 2           2             2    1     1      -0.1654301596E-03       2    1    1        -0.8839417874E-02      0.1528438417E-01
          0                 3           1             2    1     1       0.1126517983E-04       2    1    1         0.6187594204E-03      0.1067369953E-02

    ------------------------------------------------
       NWT REQUIRED            3 OUTER ITERATIONS 
       AND A TOTAL OF          5 INNER ITERATIONS.
    ------------------------------------------------

 NO OUTPUT CONTROL FOR STRESS PERIOD   23   TIME STEP   21
 
 SOLVING FOR HEAD 
                                                   Max.-Head-Change                         Max.-Flux-Residual
  Residual-Control   Outer-Iter.   Inner-Iter.     Column Row Layer    Maximum-Head-Change  Column Row Layer    Maximum-Flux-Residual          L2-NORM 
          0                 1           2             2    1     1       0.1696839983E-02       2    1    1         0.8819366160E-01      0.1516315951E+00
          0                 2           2             2    1     1      -0.1650564060E-03       2    1    1        -0.8819375851E-02      0.1513853025E-01
          0                 3           1             2    1     1       0.1123972893E-04       2    1    1         0.6173564884E-03      0.1057626414E-02

    ------------------------------------------------
       NWT REQUIRED            3 OUTER ITERATIONS 
       AND A TOTAL OF          5 INNER ITERATIONS.
    ------------------------------------------------

 NO OUTPUT CONTROL FOR STRESS PERIOD   23   TIME STEP   22
 
 SOLVING FOR HEAD 
                                                   Max.-Head-Change                         Max.-Flux-Residual
  Residual-Control   Outer-Iter.   Inner-Iter.     Column Row Layer    Maximum-Head-Change  Column Row Layer    Maximum-Flux-Residual          L2-NORM 
          0                 1           2             2    1     1       0.1693020559E-02       2    1    1         0.8799444136E-01      0.1502155870E+00
          0                 2           2             2    1     1      -0.1646848791E-03       2    1    1        -0.8799453743E-02      0.1499853529E-01
          0                 3           1             2    1     1       0.1121442951E-04       2    1    1         0.6159619520E-03      0.1047646565E-02

    ------------------------------------------------
       NWT REQUIRED            3 OUTER ITERATIONS 
       AND A TOTAL OF          5 INNER ITERATIONS.
    ------------------------------------------------

 NO OUTPUT CONTROL FOR STRESS PERIOD   23   TIME STEP   23
 
 SOLVING FOR HEAD 
                                                   Max.-Head-Change                         Max.-Flux-Residual
  Residual-Control   Outer-Iter.   Inner-Iter.     Column Row Layer    Maximum-Head-Change  Column Row Layer    Maximum-Flux-Residual          L2-NORM 
          0                 1           2             2    1     1       0.1689202286E-02       2    1    1         0.8779528883E-01      0.1488630690E+00
          0                 2           2             2    1     1      -0.1643134636E-03       2    1    1        -0.8779538415E-02      0.1486545649E-01
          0                 3           1             2    1     1       0.1118913695E-04       2    1    1         0.6145678430E-03      0.1038589159E-02

    ------------------------------------------------
       NWT REQUIRED            3 OUTER ITERATIONS 
       AND A TOTAL OF          5 INNER ITERATIONS.
    ------------------------------------------------

 NO OUTPUT CONTROL FOR STRESS PERIOD   23   TIME STEP   24
 
 SOLVING FOR HEAD 
                                                   Max.-Head-Change                         Max.-Flux-Residual
  Residual-Control   Outer-Iter.   Inner-Iter.     Column Row Layer    Maximum-Head-Change  Column Row Layer    Maximum-Flux-Residual          L2-NORM 
          0                 1           2             2    1     1       0.1685428120E-02       2    1    1         0.8759843432E-01      0.1475617491E+00
          0                 2           2             2    1     1      -0.1639463392E-03       2    1    1        -0.8759852899E-02      0.1473705612E-01
          0                 3           1             2    1     1       0.1116413715E-04       2    1    1         0.6131898636E-03      0.1030094296E-02

    ------------------------------------------------
       NWT REQUIRED            3 OUTER ITERATIONS 
       AND A TOTAL OF          5 INNER ITERATIONS.
    ------------------------------------------------

 NO OUTPUT CONTROL FOR STRESS PERIOD   23   TIME STEP   25
 
 SOLVING FOR HEAD 
                                                   Max.-Head-Change                         Max.-Flux-Residual
  Residual-Control   Outer-Iter.   Inner-Iter.     Column Row Layer    Maximum-Head-Change  Column Row Layer    Maximum-Flux-Residual          L2-NORM 
          0                 1           2             2    1     1       0.1681654611E-02       2    1    1         0.8740162825E-01      0.1463201097E+00
          0                 2           2             2    1     1      -0.1635792793E-03       2    1    1        -0.8740172232E-02      0.1461528778E-01
          0                 3           1             2    1     1       0.1113914232E-04       2    1    1         0.6118122488E-03      0.1022438507E-02

    ------------------------------------------------
       NWT REQUIRED            3 OUTER ITERATIONS 
       AND A TOTAL OF          5 INNER ITERATIONS.
    ------------------------------------------------

 NO OUTPUT CONTROL FOR STRESS PERIOD   23   TIME STEP   26
 
 SOLVING FOR HEAD 
                                                   Max.-Head-Change                         Max.-Flux-Residual
  Residual-Control   Outer-Iter.   Inner-Iter.     Column Row Layer    Maximum-Head-Change  Column Row Layer    Maximum-Flux-Residual          L2-NORM 
          0                 1           2             2    1     1       0.1677924755E-02       2    1    1         0.8720709484E-01      0.1451235949E+00
          0                 2           2             2    1     1      -0.1632164648E-03       2    1    1        -0.8720718824E-02      0.1449640463E-01
          0                 3           1             2    1     1       0.1111443576E-04       2    1    1         0.6104505008E-03      0.1013278470E-02

    ------------------------------------------------
       NWT REQUIRED            3 OUTER ITERATIONS 
       AND A TOTAL OF          5 INNER ITERATIONS.
    ------------------------------------------------

 NO OUTPUT CONTROL FOR STRESS PERIOD   23   TIME STEP   27
 
 SOLVING FOR HEAD 
                                                   Max.-Head-Change                         Max.-Flux-Residual
  Residual-Control   Outer-Iter.   Inner-Iter.     Column Row Layer    Maximum-Head-Change  Column Row Layer    Maximum-Flux-Residual          L2-NORM 
          0                 1           2             2    1     1       0.1674195106E-02       2    1    1         0.8701258612E-01      0.1439702511E+00
          0                 2           2             2    1     1      -0.1628536708E-03       2    1    1        -0.8701267895E-02      0.1438214999E-01
          0                 3           1             2    1     1       0.1108973086E-04       2    1    1         0.6090889379E-03      0.1005504725E-02

    ------------------------------------------------
       NWT REQUIRED            3 OUTER ITERATIONS 
       AND A TOTAL OF          5 INNER ITERATIONS.
    ------------------------------------------------

 NO OUTPUT CONTROL FOR STRESS PERIOD   23   TIME STEP   28
 
 SOLVING FOR HEAD 
                                                   Max.-Head-Change                         Max.-Flux-Residual
  Residual-Control   Outer-Iter.   Inner-Iter.     Column Row Layer    Maximum-Head-Change  Column Row Layer    Maximum-Flux-Residual          L2-NORM 
          0                 1           2             2    1     1       0.1670508666E-02       2    1    1         0.8682032683E-01      0.1428637189E+00
          0                 2           2             2    1     1      -0.1624950798E-03       2    1    1        -0.8682041895E-02      0.1427282009E-01
          0                 3           1             2    1     1       0.1106531257E-04       2    1    1         0.6077431246E-03      0.9979109530E-03

    ------------------------------------------------
       NWT REQUIRED            3 OUTER ITERATIONS 
       AND A TOTAL OF          5 INNER ITERATIONS.
    ------------------------------------------------

 NO OUTPUT CONTROL FOR STRESS PERIOD   23   TIME STEP   29
 
 SOLVING FOR HEAD 
                                                   Max.-Head-Change                         Max.-Flux-Residual
  Residual-Control   Outer-Iter.   Inner-Iter.     Column Row Layer    Maximum-Head-Change  Column Row Layer    Maximum-Flux-Residual          L2-NORM 
          0                 1           2             2    1     1       0.1666822092E-02       2    1    1         0.8662806911E-01      0.1417968646E+00
          0                 2           2             2    1     1      -0.1621364752E-03       2    1    1        -0.8662816048E-02      0.1416707156E-01
          0                 3           1             2    1     1       0.1104089238E-04       2    1    1         0.6063972932E-03      0.9904291959E-03

    ------------------------------------------------
       NWT REQUIRED            3 OUTER ITERATIONS 
       AND A TOTAL OF          5 INNER ITERATIONS.
    ------------------------------------------------

 NO OUTPUT CONTROL FOR STRESS PERIOD   23   TIME STEP   30



 STREAM LISTING     PERIOD     23   STEP       30

 LAYER ROW COL. STREAM  RCH.  FLOW INTO     FLOW TO   FLOW OUT OF   OVRLND.     DIRECT     STREAM       STREAM     STREAM     STREAM   STREAMBED  STREAMBED
                SEG.NO.  NO.  STRM. RCH.    AQUIFER    STRM. RCH.    RUNOFF     PRECIP       ET          HEAD       DEPTH      WIDTH   CONDCTNC.   GRADIENT

   1    1    1     1     1    1.6500E+01  1.9759E-01   1.6303E+01  0.000E+00  0.000E+00  0.000E+00  1.09409E+03  1.039E+00  1.087E+01  4.893E-02  1.346E+00
   1    2    2     1     2    1.6303E+01  3.0466E-01   1.5998E+01  0.000E+00  0.000E+00  0.000E+00  1.08909E+03  1.034E+00  1.079E+01  7.552E-02  1.345E+00
   1    3    3     1     3    1.5998E+01  2.5853E-01   1.5739E+01  0.000E+00  0.000E+00  0.000E+00  1.08345E+03  1.029E+00  1.070E+01  6.417E-02  1.343E+00
   1    3    4     1     4    1.5739E+01  2.3700E-01   1.5502E+01  0.000E+00  0.000E+00  0.000E+00  1.07843E+03  1.024E+00  1.061E+01  5.890E-02  1.341E+00
   1    4    5     2     1    1.3502E+01  2.9865E-01   1.3204E+01  0.000E+00  0.000E+00  0.000E+00  1.07276E+03  8.289E-01  1.200E+01  7.800E-02  1.276E+00
   1    5    6     2     2    1.3204E+01  2.2914E-01   1.2975E+01  0.000E+00  0.000E+00  0.000E+00  1.06733E+03  8.190E-01  1.200E+01  6.000E-02  1.273E+00
   1    6    6     2     3    1.2975E+01  2.2862E-01   1.2746E+01  0.000E+00  0.000E+00  0.000E+00  1.06260E+03  8.104E-01  1.200E+01  6.000E-02  1.270E+00
   1    7    6     2     4    1.2746E+01  2.2810E-01   1.2518E+01  0.000E+00  0.000E+00  0.000E+00  1.05788E+03  8.017E-01  1.200E+01  6.000E-02  1.267E+00
   1    8    6     2     5    1.2518E+01  2.2758E-01   1.2290E+01  0.000E+00  0.000E+00  0.000E+00  1.05315E+03  7.930E-01  1.200E+01  6.000E-02  1.264E+00
   1    3    5     3     1    2.0000E+00  2.8252E-01   1.7175E+00  0.000E+00  0.000E+00  0.000E+00  1.07555E+03  1.909E+00  9.636E+00  7.227E-02  1.955E+00
   1    3    6     3     2    1.7175E+00  2.4905E-01   1.4684E+00  0.000E+00  0.000E+00  0.000E+00  1.07264E+03  1.727E+00  8.909E+00  6.682E-02  1.864E+00
   1    3    7     3     3    1.4684E+00  1.9718E-01   1.2712E+00  0.000E+00  0.000E+00  0.000E+00  1.06987E+03  1.555E+00  8.218E+00  5.547E-02  1.777E+00
   1    4    8     3     4    1.2712E+00  2.2567E-01   1.0456E+00  0.000E+00  0.000E+00  0.000E+00  1.06682E+03  1.364E+00  7.455E+00  6.709E-02  1.682E+00
   1    5    8     3     5    1.0456E+00  1.5790E-01   8.8768E-01  0.000E+00  0.000E+00  0.000E+00  1.06362E+03  1.164E+00  6.655E+00  4.991E-02  1.582E+00
   1    6    8     3     6    8.8768E-01  5.5980E-02   8.3170E-01  0.000E+00  0.000E+00  0.000E+00  1.06158E+03  1.036E+00  6.145E+00  1.844E-02  1.518E+00
   1    5   10     4     1    1.0000E+01  9.0919E-02   9.9091E+00  0.000E+00  0.000E+00  0.000E+00  1.07836E+03  6.368E-01  1.000E+01  2.500E-02  1.212E+00
   1    5    9     4     2    9.9091E+00  1.8158E-01   9.7275E+00  0.000E+00  0.000E+00  0.000E+00  1.07154E+03  6.315E-01  1.000E+01  5.000E-02  1.211E+00
   1    6    8     4     3    9.7275E+00  1.2689E-01   9.6006E+00  0.000E+00  0.000E+00  0.000E+00  1.06381E+03  6.256E-01  1.000E+01  3.500E-02  1.209E+00
   1    6    8     5     1    1.0432E+01  2.2686E-01   1.0205E+01  0.000E+00  0.000E+00  0.000E+00  1.05868E+03  6.790E-01  1.542E+01  6.166E-02  1.226E+00
   1    7    7     5     2    1.0205E+01  2.7894E-01   9.9265E+00  0.000E+00  0.000E+00  0.000E+00  1.05417E+03  6.732E-01  1.519E+01  7.594E-02  1.224E+00
   1    8    7     5     3    9.9265E+00  1.9221E-01   9.7343E+00  0.000E+00  0.000E+00  0.000E+00  1.04992E+03  6.676E-01  1.497E+01  5.241E-02  1.223E+00
   1    8    6     5     4    9.7343E+00  1.3577E-01   9.5985E+00  0.000E+00  0.000E+00  0.000E+00  1.04691E+03  6.637E-01  1.482E+01  3.706E-02  1.221E+00
   1    9    6     6     1    2.1889E+01  2.4742E-01   2.1641E+01  0.000E+00  0.000E+00  0.000E+00  1.04385E+03  1.124E+00  1.200E+01  6.000E-02  1.375E+00
   1   10    7     6     2    2.1641E+01  2.4696E-01   2.1395E+01  0.000E+00  0.000E+00  0.000E+00  1.03930E+03  1.116E+00  1.200E+01  6.000E-02  1.372E+00
   1   11    7     6     3    2.1395E+01  2.4650E-01   2.1148E+01  0.000E+00  0.000E+00  0.000E+00  1.03474E+03  1.108E+00  1.200E+01  6.000E-02  1.369E+00
   1   12    7     6     4    2.1148E+01  2.4603E-01   2.0902E+01  0.000E+00  0.000E+00  0.000E+00  1.03019E+03  1.101E+00  1.200E+01  6.000E-02  1.367E+00
   1   13    7     6     5    2.0902E+01 -3.8478E-02   2.0940E+01  0.000E+00  0.000E+00  0.000E+00  1.02701E+03  1.097E+00  1.200E+01  2.400E-01 -5.344E-02
   1   14    9     7     1    1.5000E+02  1.3329E+00   1.4867E+02  0.000E+00  0.000E+00  0.000E+00  1.03987E+03  2.288E+00  5.529E+01  5.593E-01  7.944E-01
   1   13    8     7     2    1.4867E+02  1.8076E+00   1.4686E+02  0.000E+00  0.000E+00  0.000E+00  1.03478E+03  2.279E+00  5.526E+01  6.148E-01  9.801E-01
   1   13    7     7     3    1.4686E+02  1.4093E+00   1.4545E+02  0.000E+00  0.000E+00  0.000E+00  1.02969E+03  2.271E+00  5.522E+01  5.585E-01  8.411E-01
   1   13    6     8     1    1.6639E+02  8.3452E-01   1.6556E+02  0.000E+00  0.000E+00  0.000E+00  1.02480E+03  2.926E+00  4.242E+01  4.323E-01  6.435E-01
   1   13    5     8     2    1.6556E+02  9.4386E-02   1.6546E+02  0.000E+00  0.000E+00  0.000E+00  1.01855E+03  2.923E+00  4.238E+01  4.319E-01  7.285E-02
   1   13    4     8     3    1.6546E+02 -2.7129E+00   1.6817E+02  0.000E+00  0.000E+00  0.000E+00  1.01231E+03  2.931E+00  4.250E+01  4.331E+00 -2.088E-01
   1   13    3     8     4    1.6817E+02 -3.7765E+00   1.7195E+02  0.000E+00  0.000E+00  0.000E+00  1.00608E+03  2.953E+00  4.281E+01  4.363E+00 -2.885E-01
   1   13    2     8     5    1.7195E+02 -2.6102E+00   1.7456E+02  0.000E+00  0.000E+00  0.000E+00  9.99848E+02  2.973E+00  4.311E+01  4.393E+00 -1.980E-01
   1   13    1     8     6    1.7456E+02 -1.9977E+00   1.7656E+02  0.000E+00  0.000E+00  0.000E+00  9.94863E+02  2.988E+00  4.333E+01  2.649E+00 -2.514E-01
   1    8    6     9     1    0.0000E+00  0.0000E+00   0.0000E+00  0.000E+00  0.000E+00  0.000E+00  1.07875E+03  0.000E+00  4.000E+00  0.000E+00  1.000E+00
   1    8    5     9     2    0.0000E+00  0.0000E+00   0.0000E+00  0.000E+00  0.000E+00  0.000E+00  1.07825E+03  0.000E+00  4.000E+00  0.000E+00  1.000E+00





UNSATURATED ZONE PACKAGE VOLUMETRIC BUDGET FOR  TIME STEP    30 STRESS PERIOD   23
  ------------------------------------------------------------------------------



     CUMULATIVE VOLUMES      L**3       RATES FOR THIS TIME STEP      L**3/T
     ------------------                 ------------------------

           IN:                                      IN:
           ---                                      ---
        INFILTRATION =   255939983.9387          INFILTRATION =           4.4075

          OUT:                                     OUT:
          ----                                     ----
              UZF ET =   198395285.2972                UZF ET =           3.7800
        UZF RECHARGE =      674797.3606          UZF RECHARGE =       0.0000E+00

            IN - OUT =    56869901.2809              IN - OUT =           0.6275

          STORAGE:                                 STORAGE:
          --------                                 --------
      STORAGE CHANGE =    56870547.7229        STORAGE CHANGE =           0.6275

 PERCENT DISCREPANCY IS DIFFERENCE BETWEEN IN-OUT MINUS CHANGE IN STORAGE
 DIVIDED BY THE AVERAGE OF IN AND OUT TIMES 100

 PERCENT DISCREPANCY =          -0.00     PERCENT DISCREPANCY =           0.00






1
  VOLUMETRIC BUDGET FOR ENTIRE MODEL AT END OF TIME STEP   30, STRESS PERIOD  23
  ------------------------------------------------------------------------------

     CUMULATIVE VOLUMES      L**3       RATES FOR THIS TIME STEP      L**3/T
     ------------------                 ------------------------

           IN:                                      IN:
           ---                                      ---
               AG WELLS  =           0.0000                 AG WELLS  =           0.0000
        DIVERSION SEGMEN =      848802.5000          DIVERSION SEGMEN =           0.0000
    TS         GW IRRIGA =           0.0000      TS         GW IRRIGA =           0.0000
    TION         SW IRRI =           0.0000      TION         SW IRRI =           0.0000
    GATION      SYSTEM L =           0.0000      GATION      SYSTEM L =           0.0000
    OSSES GW      SYSTEM =           0.1856      OSSES GW      SYSTEM =           0.0000

                TOTAL IN =      848802.6875                  TOTAL IN =           0.0000

          OUT:                                     OUT:
          ----                                     ----
               AG WELLS  =           0.0000                 AG WELLS  =           0.0000
        DIVERSION SEGMEN =           0.0000          DIVERSION SEGMEN =           0.0000
    TS         GW IRRIGA =           0.0000      TS         GW IRRIGA =           0.0000
    TION         SW IRRI =      848819.6875      TION         SW IRRI =           0.0000
    GATION      SYSTEM L =           0.0000      GATION      SYSTEM L =           0.0000
    OSSES GW      SYSTEM =           0.0000      OSSES GW      SYSTEM =           0.0000

               TOTAL OUT =      848819.6875                 TOTAL OUT =           0.0000

                IN - OUT =         -17.0000                  IN - OUT =           0.0000

     PERCENT DISCREPANCY =          -0.00         PERCENT DISCREPANCY =           0.00



1
  VOLUMETRIC BUDGET FOR ENTIRE MODEL AT END OF TIME STEP   30, STRESS PERIOD  23
  ------------------------------------------------------------------------------

     CUMULATIVE VOLUMES      L**3       RATES FOR THIS TIME STEP      L**3/T
     ------------------                 ------------------------

           IN:                                      IN:
           ---                                      ---
             STORAGE     =    32452332.0000               STORAGE     =           0.5011
       CONSTANT HEAD     =           0.0000         CONSTANT HEAD     =           0.0000
     HEAD DEP BOUNDS     =    16553469.0000       HEAD DEP BOUNDS     =           0.2856
      STREAM LEAKAGE     =   694261312.0000        STREAM LEAKAGE     =          11.0770
        UZF RECHARGE     =      674797.2500          UZF RECHARGE     =           0.0000
               GW ET     =           0.0000                 GW ET     =           0.0000
     SURFACE LEAKAGE     =           0.0000       SURFACE LEAKAGE     =           0.0000
           AG WELLS      =           0.0000             AG WELLS      =           0.0000

                TOTAL IN =   743941952.0000                  TOTAL IN =          11.8636

          OUT:                                     OUT:
          ----                                     ----
             STORAGE     =    95440184.0000               STORAGE     =           0.4383
       CONSTANT HEAD     =           0.0000         CONSTANT HEAD     =           0.0000
     HEAD DEP BOUNDS     =    16949600.0000       HEAD DEP BOUNDS     =           0.2895
      STREAM LEAKAGE     =   622075264.0000        STREAM LEAKAGE     =          11.1358
        UZF RECHARGE     =           0.0000          UZF RECHARGE     =           0.0000
               GW ET     =     9490485.0000                 GW ET     =           0.0000
     SURFACE LEAKAGE     =           0.0000       SURFACE LEAKAGE     =           0.0000
           AG WELLS      =           0.0000             AG WELLS      =           0.0000

               TOTAL OUT =   743955520.0000                 TOTAL OUT =          11.8636

                IN - OUT =      -13568.0000                  IN - OUT =       2.1935E-05

     PERCENT DISCREPANCY =          -0.00         PERCENT DISCREPANCY =           0.00






         TIME SUMMARY AT END OF TIME STEP   30 IN STRESS PERIOD   23
                    SECONDS     MINUTES      HOURS       DAYS        YEARS
                    -----------------------------------------------------------
   TIME STEP LENGTH  87667.      1461.1      24.352      1.0147     2.77799E-03
 STRESS PERIOD TIME 2.63000E+06  43833.      730.56      30.440     8.33397E-02
         TOTAL TIME 5.79467E+07 9.65778E+05  16096.      670.68      1.8362    
1
1
                            STRESS PERIOD NO.   24, LENGTH =   2630000.    
                            -----------------------------------------------

                              NUMBER OF TIME STEPS =    30

                               MULTIPLIER FOR DELT =     1.000

                            INITIAL TIME STEP SIZE =   87666.66    

 REUSING NON-PARAMETER GHB CELLS FROM LAST STRESS PERIOD

      2 GHB CELLS

 REUSING STREAM SEGMENT DATA FROM LAST STRESS PERIOD



            AREAL INFILTRATION RATE
 READING ON UNIT   19 WITH FORMAT: (10F4.0)            

            1           2           3           4           5           6           7           8           9          10
 ........................................................................................................................
   1   1.2000E-09   0.000       0.000       0.000       0.000       0.000       0.000       0.000       0.000       0.000    
   2   2.1000E-09  2.0000E-09  8.0000E-10  8.5000E-09   0.000       0.000       0.000       0.000       0.000       0.000    
   3   5.0000E-10  1.1000E-09  8.8000E-09  5.5000E-09   0.000       0.000       0.000       0.000       0.000       0.000    
   4   8.5000E-09  1.1000E-09  1.1000E-09  1.1000E-09  2.0000E-09   0.000       0.000       0.000       0.000       0.000    
   5   8.5000E-09  1.1000E-09  1.1000E-09  1.1000E-09  1.1000E-09   0.000       0.000       0.000       0.000       0.000    
   6   8.5000E-09  5.2000E-09  2.1000E-09  1.1000E-09  1.5000E-09   0.000       0.000       0.000       0.000       0.000    
   7   8.5000E-09  5.2000E-09  2.1000E-09  1.2000E-09  2.0000E-09   0.000       0.000       0.000       0.000       0.000    
   8   5.0000E-10  5.2000E-09  2.1000E-09  1.2000E-09  5.0000E-09   0.000       0.000       0.000       0.000       0.000    
   9   5.0000E-10  5.2000E-09  2.1000E-09  1.2000E-09  5.0000E-09   0.000       0.000       0.000       0.000       0.000    
  10   5.0000E-10  5.2000E-09  2.1000E-09  1.2000E-09  5.8000E-09   0.000       0.000       0.000       0.000       0.000    
  11   1.0000E-10  1.1000E-09  1.1000E-09  1.2000E-09  5.0000E-09   0.000       0.000       0.000       0.000       0.000    
  12   1.1000E-09  1.1000E-09  1.1000E-09  1.1000E-09  2.0000E-09   0.000       0.000       0.000       0.000       0.000    
  13   1.1000E-09  2.2000E-09  2.2000E-09  2.1000E-09  1.0000E-09   0.000       0.000       0.000       0.000       0.000    
  14   2.0000E-10  5.5000E-09  5.5000E-09  5.2000E-09  1.0000E-09   0.000       0.000       0.000       0.000       0.000    
  15    0.000      8.8000E-09  8.8000E-09   0.000       0.000       0.000       0.000       0.000       0.000       0.000    

                  ET RATE =  5.000000E-10

 USING ET EXTINCTION DEPTH FROM PREVIOUS STRESS PERIOD. CURRENT PERIOD IS:      24

 USING EXTINCTION WATER CONTENT FROM PREVIOUS STRESS PERIOD. CURRENT PERIOD IS:      24

 USING AIR ENTRY PRESSURE FROM PREVIOUS STRESS PERIOD. CURRENT PERIOD IS:      24

 USING ROOT PRESSURE HEAD FROM PREVIOUS STRESS PERIOD. CURRENT PERIOD IS:      24

 USING ROOT ACTIVITY FROM PREVIOUS STRESS PERIOD. CURRENT PERIOD IS:      24

 PROCESSING AG STRESS PERIOD DATA

 READING AG STRESS PERIOD DATA

 READING IRRIGATION SEGMENT

 READING IRRIGATION WELL

 READING SUPPLEMENTAL WELL

 END PROCESSING AG STRESS PERIOD DATA OPTIONS
 
 SOLVING FOR HEAD 
                                                   Max.-Head-Change                         Max.-Flux-Residual
  Residual-Control   Outer-Iter.   Inner-Iter.     Column Row Layer    Maximum-Head-Change  Column Row Layer    Maximum-Flux-Residual          L2-NORM 
          0                 1           2             2    1     1       0.1663061853E-02       2    1    1         0.8643804338E-01      0.1444897731E+00
          0                 2           2             2    1     1      -0.1617707084E-03       2    1    1        -0.8643813582E-02      0.1442563085E-01
          0                 3           1             2    1     1       0.1101598536E-04       2    1    1         0.6050671378E-03      0.1007751361E-02

    ------------------------------------------------
       NWT REQUIRED            3 OUTER ITERATIONS 
       AND A TOTAL OF          5 INNER ITERATIONS.
    ------------------------------------------------

 NO OUTPUT CONTROL FOR STRESS PERIOD   24   TIME STEP    1
 
 SOLVING FOR HEAD 
                                                   Max.-Head-Change                         Max.-Flux-Residual
  Residual-Control   Outer-Iter.   Inner-Iter.     Column Row Layer    Maximum-Head-Change  Column Row Layer    Maximum-Flux-Residual          L2-NORM 
          0                 1           2             2    1     1       0.1659119467E-02       2    1    1         0.8624195723E-01      0.1505996629E+00
          0                 2           2             2    1     1      -0.1613872240E-03       2    1    1        -0.8624205125E-02      0.1501529246E-01
          0                 3           1             2    1     1       0.1098987083E-04       2    1    1         0.6036945253E-03      0.1047037990E-02

    ------------------------------------------------
       NWT REQUIRED            3 OUTER ITERATIONS 
       AND A TOTAL OF          5 INNER ITERATIONS.
    ------------------------------------------------

 NO OUTPUT CONTROL FOR STRESS PERIOD   24   TIME STEP    2
 
 SOLVING FOR HEAD 
                                                   Max.-Head-Change                         Max.-Flux-Residual
  Residual-Control   Outer-Iter.   Inner-Iter.     Column Row Layer    Maximum-Head-Change  Column Row Layer    Maximum-Flux-Residual          L2-NORM 
          0                 1           2             2    1     1       0.1655200122E-02       2    1    1         0.8603754539E-01      0.1488598695E+00
          0                 2           2             2    1     1      -0.1610059774E-03       2    1    1        -0.8603763866E-02      0.1484547106E-01
          0                 3           1             2    1     1       0.1096390943E-04       2    1    1         0.6022636362E-03      0.1035279635E-02

    ------------------------------------------------
       NWT REQUIRED            3 OUTER ITERATIONS 
       AND A TOTAL OF          5 INNER ITERATIONS.
    ------------------------------------------------

 NO OUTPUT CONTROL FOR STRESS PERIOD   24   TIME STEP    3
 
 SOLVING FOR HEAD 
                                                   Max.-Head-Change                         Max.-Flux-Residual
  Residual-Control   Outer-Iter.   Inner-Iter.     Column Row Layer    Maximum-Head-Change  Column Row Layer    Maximum-Flux-Residual          L2-NORM 
          0                 1           2             2    1     1       0.1651325158E-02       2    1    1         0.8583545084E-01      0.1472275080E+00
          0                 2           2             2    1     1      -0.1606290480E-03       2    1    1        -0.8583554342E-02      0.1468669236E-01
          0                 3           1             2    1     1       0.1093824174E-04       2    1    1         0.6008489731E-03      0.1024917990E-02

    ------------------------------------------------
       NWT REQUIRED            3 OUTER ITERATIONS 
       AND A TOTAL OF          5 INNER ITERATIONS.
    ------------------------------------------------

 NO OUTPUT CONTROL FOR STRESS PERIOD   24   TIME STEP    4
 
 SOLVING FOR HEAD 
                                                   Max.-Head-Change                         Max.-Flux-Residual
  Residual-Control   Outer-Iter.   Inner-Iter.     Column Row Layer    Maximum-Head-Change  Column Row Layer    Maximum-Flux-Residual          L2-NORM 
          0                 1           2             2    1     1       0.1647451235E-02       2    1    1         0.8563341798E-01      0.1456977765E+00
          0                 2           2             2    1     1      -0.1602522195E-03       2    1    1        -0.8563350967E-02      0.1453687517E-01
          0                 3           1             2    1     1       0.1091258139E-04       2    1    1         0.5994347367E-03      0.1014508596E-02

    ------------------------------------------------
       NWT REQUIRED            3 OUTER ITERATIONS 
       AND A TOTAL OF          5 INNER ITERATIONS.
    ------------------------------------------------

 NO OUTPUT CONTROL FOR STRESS PERIOD   24   TIME STEP    5
 
 SOLVING FOR HEAD 
                                                   Max.-Head-Change                         Max.-Flux-Residual
  Residual-Control   Outer-Iter.   Inner-Iter.     Column Row Layer    Maximum-Head-Change  Column Row Layer    Maximum-Flux-Residual          L2-NORM 
          0                 1           2             2    1     1       0.1643599696E-02       2    1    1         0.8543255883E-01      0.1442581350E+00
          0                 2           2             2    1     1      -0.1598775692E-03       2    1    1        -0.8543264996E-02      0.1439622694E-01
          0                 3           1             2    1     1       0.1088706919E-04       2    1    1         0.5980287271E-03      0.1005159364E-02

    ------------------------------------------------
       NWT REQUIRED            3 OUTER ITERATIONS 
       AND A TOTAL OF          5 INNER ITERATIONS.
    ------------------------------------------------

 NO OUTPUT CONTROL FOR STRESS PERIOD   24   TIME STEP    6
 
 SOLVING FOR HEAD 
                                                   Max.-Head-Change                         Max.-Flux-Residual
  Residual-Control   Outer-Iter.   Inner-Iter.     Column Row Layer    Maximum-Head-Change  Column Row Layer    Maximum-Flux-Residual          L2-NORM 
          0                 1           2             2    1     1       0.1639791891E-02       2    1    1         0.8523398008E-01      0.1428939804E+00
          0                 2           2             2    1     1      -0.1595071726E-03       2    1    1        -0.8523407077E-02      0.1426282551E-01
          0                 3           1             2    1     1       0.1086184621E-04       2    1    1         0.5966386551E-03      0.9964897175E-03

    ------------------------------------------------
       NWT REQUIRED            3 OUTER ITERATIONS 
       AND A TOTAL OF          5 INNER ITERATIONS.
    ------------------------------------------------

 NO OUTPUT CONTROL FOR STRESS PERIOD   24   TIME STEP    7
 
 SOLVING FOR HEAD 
                                                   Max.-Head-Change                         Max.-Flux-Residual
  Residual-Control   Outer-Iter.   Inner-Iter.     Column Row Layer    Maximum-Head-Change  Column Row Layer    Maximum-Flux-Residual          L2-NORM 
          0                 1           2             2    1     1       0.1635984430E-02       2    1    1         0.8503542923E-01      0.1416051322E+00
          0                 2           2             2    1     1      -0.1591368100E-03       2    1    1        -0.8503551936E-02      0.1413630580E-01
          0                 3           1             2    1     1       0.1083662654E-04       2    1    1         0.5952488162E-03      0.9873407432E-03

    ------------------------------------------------
       NWT REQUIRED            3 OUTER ITERATIONS 
       AND A TOTAL OF          5 INNER ITERATIONS.
    ------------------------------------------------

 NO OUTPUT CONTROL FOR STRESS PERIOD   24   TIME STEP    8
 
 SOLVING FOR HEAD 
                                                   Max.-Head-Change                         Max.-Flux-Residual
  Residual-Control   Outer-Iter.   Inner-Iter.     Column Row Layer    Maximum-Head-Change  Column Row Layer    Maximum-Flux-Residual          L2-NORM 
          0                 1           2             2    1     1       0.1632198722E-02       2    1    1         0.8483801604E-01      0.1403764520E+00
          0                 2           2             2    1     1      -0.1587685624E-03       2    1    1        -0.8483810539E-02      0.1401572967E-01
          0                 3           1             2    1     1       0.1081154983E-04       2    1    1         0.5938669045E-03      0.9791425297E-03

    ------------------------------------------------
       NWT REQUIRED            3 OUTER ITERATIONS 
       AND A TOTAL OF          5 INNER ITERATIONS.
    ------------------------------------------------

 NO OUTPUT CONTROL FOR STRESS PERIOD   24   TIME STEP    9
 
 SOLVING FOR HEAD 
                                                   Max.-Head-Change                         Max.-Flux-Residual
  Residual-Control   Outer-Iter.   Inner-Iter.     Column Row Layer    Maximum-Head-Change  Column Row Layer    Maximum-Flux-Residual          L2-NORM 
          0                 1           2             2    1     1       0.1628434555E-02       2    1    1         0.8464173076E-01      0.1392080019E+00
          0                 2           2             2    1     1      -0.1584024104E-03       2    1    1        -0.8464181931E-02      0.1390072966E-01
          0                 3           1             2    1     1       0.1078661677E-04       2    1    1         0.5924929163E-03      0.9709821276E-03

    ------------------------------------------------
       NWT REQUIRED            3 OUTER ITERATIONS 
       AND A TOTAL OF          5 INNER ITERATIONS.
    ------------------------------------------------

 NO OUTPUT CONTROL FOR STRESS PERIOD   24   TIME STEP   10
 
 SOLVING FOR HEAD 
                                                   Max.-Head-Change                         Max.-Flux-Residual
  Residual-Control   Outer-Iter.   Inner-Iter.     Column Row Layer    Maximum-Head-Change  Column Row Layer    Maximum-Flux-Residual          L2-NORM 
          0                 1           2             2    1     1       0.1624691787E-02       2    1    1         0.8444656230E-01      0.1380929557E+00
          0                 2           2             2    1     1      -0.1580383406E-03       2    1    1        -0.8444665043E-02      0.1379103214E-01
          0                 3           1             2    1     1       0.1076182477E-04       2    1    1         0.5911267221E-03      0.9637944122E-03

    ------------------------------------------------
       NWT REQUIRED            3 OUTER ITERATIONS 
       AND A TOTAL OF          5 INNER ITERATIONS.
    ------------------------------------------------

 NO OUTPUT CONTROL FOR STRESS PERIOD   24   TIME STEP   11
 
 SOLVING FOR HEAD 
                                                   Max.-Head-Change                         Max.-Flux-Residual
  Residual-Control   Outer-Iter.   Inner-Iter.     Column Row Layer    Maximum-Head-Change  Column Row Layer    Maximum-Flux-Residual          L2-NORM 
          0                 1           2             2    1     1       0.1620970140E-02       2    1    1         0.8425250340E-01      0.1370278718E+00
          0                 2           2             2    1     1      -0.1576763243E-03       2    1    1        -0.8425259090E-02      0.1368648314E-01
          0                 3           1             2    1     1       0.1073717218E-04       2    1    1         0.5897682801E-03      0.9565766872E-03

    ------------------------------------------------
       NWT REQUIRED            3 OUTER ITERATIONS 
       AND A TOTAL OF          5 INNER ITERATIONS.
    ------------------------------------------------

 NO OUTPUT CONTROL FOR STRESS PERIOD   24   TIME STEP   12
 
 SOLVING FOR HEAD 
                                                   Max.-Head-Change                         Max.-Flux-Residual
  Residual-Control   Outer-Iter.   Inner-Iter.     Column Row Layer    Maximum-Head-Change  Column Row Layer    Maximum-Flux-Residual          L2-NORM 
          0                 1           2             2    1     1       0.1617269479E-02       2    1    1         0.8405953959E-01      0.1360022454E+00
          0                 2           2             2    1     1      -0.1573163502E-03       2    1    1        -0.8405962649E-02      0.1358516573E-01
          0                 3           1             2    1     1       0.1071265969E-04       2    1    1         0.5884175386E-03      0.9495571847E-03

    ------------------------------------------------
       NWT REQUIRED            3 OUTER ITERATIONS 
       AND A TOTAL OF          5 INNER ITERATIONS.
    ------------------------------------------------

 NO OUTPUT CONTROL FOR STRESS PERIOD   24   TIME STEP   13
 
 SOLVING FOR HEAD 
                                                   Max.-Head-Change                         Max.-Flux-Residual
  Residual-Control   Outer-Iter.   Inner-Iter.     Column Row Layer    Maximum-Head-Change  Column Row Layer    Maximum-Flux-Residual          L2-NORM 
          0                 1           2             2    1     1       0.1613589531E-02       2    1    1         0.8386766389E-01      0.1350151348E+00
          0                 2           2             2    1     1      -0.1569583906E-03       2    1    1        -0.8386775007E-02      0.1348759301E-01
          0                 3           1             2    1     1       0.1068828400E-04       2    1    1         0.5870744113E-03      0.9428704896E-03

    ------------------------------------------------
       NWT REQUIRED            3 OUTER ITERATIONS 
       AND A TOTAL OF          5 INNER ITERATIONS.
    ------------------------------------------------

 NO OUTPUT CONTROL FOR STRESS PERIOD   24   TIME STEP   14
 
 SOLVING FOR HEAD 
                                                   Max.-Head-Change                         Max.-Flux-Residual
  Residual-Control   Outer-Iter.   Inner-Iter.     Column Row Layer    Maximum-Head-Change  Column Row Layer    Maximum-Flux-Residual          L2-NORM 
          0                 1           2             2    1     1       0.1609930195E-02       2    1    1         0.8367686215E-01      0.1340699881E+00
          0                 2           2             2    1     1      -0.1566024362E-03       2    1    1        -0.8367694779E-02      0.1339436365E-01
          0                 3           1             2    1     1       0.1066404487E-04       2    1    1         0.5857387948E-03      0.9364504705E-03

    ------------------------------------------------
       NWT REQUIRED            3 OUTER ITERATIONS 
       AND A TOTAL OF          5 INNER ITERATIONS.
    ------------------------------------------------

 NO OUTPUT CONTROL FOR STRESS PERIOD   24   TIME STEP   15
 
 SOLVING FOR HEAD 
                                                   Max.-Head-Change                         Max.-Flux-Residual
  Residual-Control   Outer-Iter.   Inner-Iter.     Column Row Layer    Maximum-Head-Change  Column Row Layer    Maximum-Flux-Residual          L2-NORM 
          0                 1           2             2    1     1       0.1606291245E-02       2    1    1         0.8348712911E-01      0.1331551249E+00
          0                 2           2             2    1     1      -0.1562484650E-03       2    1    1        -0.8348721416E-02      0.1330400053E-01
          0                 3           1             2    1     1       0.1063994088E-04       2    1    1         0.5844106743E-03      0.9303438020E-03

    ------------------------------------------------
       NWT REQUIRED            3 OUTER ITERATIONS 
       AND A TOTAL OF          5 INNER ITERATIONS.
    ------------------------------------------------

 NO OUTPUT CONTROL FOR STRESS PERIOD   24   TIME STEP   16
 
 SOLVING FOR HEAD 
                                                   Max.-Head-Change                         Max.-Flux-Residual
  Residual-Control   Outer-Iter.   Inner-Iter.     Column Row Layer    Maximum-Head-Change  Column Row Layer    Maximum-Flux-Residual          L2-NORM 
          0                 1           2             2    1     1       0.1602672416E-02       2    1    1         0.8329845308E-01      0.1322722157E+00
          0                 2           2             2    1     1      -0.1558964509E-03       2    1    1        -0.8329853769E-02      0.1321656529E-01
          0                 3           1             2    1     1       0.1061597014E-04       2    1    1         0.5830899386E-03      0.9241922847E-03

    ------------------------------------------------
       NWT REQUIRED            3 OUTER ITERATIONS 
       AND A TOTAL OF          5 INNER ITERATIONS.
    ------------------------------------------------

 NO OUTPUT CONTROL FOR STRESS PERIOD   24   TIME STEP   17
 
 SOLVING FOR HEAD 
                                                   Max.-Head-Change                         Max.-Flux-Residual
  Residual-Control   Outer-Iter.   Inner-Iter.     Column Row Layer    Maximum-Head-Change  Column Row Layer    Maximum-Flux-Residual          L2-NORM 
          0                 1           2             2    1     1       0.1599073586E-02       2    1    1         0.8311082028E-01      0.1314232911E+00
          0                 2           2             2    1     1      -0.1555463819E-03       2    1    1        -0.8311090426E-02      0.1313203927E-01
          0                 3           1             2    1     1       0.1059213169E-04       2    1    1         0.5817765018E-03      0.9179518315E-03

    ------------------------------------------------
       NWT REQUIRED            3 OUTER ITERATIONS 
       AND A TOTAL OF          5 INNER ITERATIONS.
    ------------------------------------------------

 NO OUTPUT CONTROL FOR STRESS PERIOD   24   TIME STEP   18
 
 SOLVING FOR HEAD 
                                                   Max.-Head-Change                         Max.-Flux-Residual
  Residual-Control   Outer-Iter.   Inner-Iter.     Column Row Layer    Maximum-Head-Change  Column Row Layer    Maximum-Flux-Residual          L2-NORM 
          0                 1           2             2    1     1       0.1595494594E-02       2    1    1         0.8292422442E-01      0.1305965311E+00
          0                 2           2             2    1     1      -0.1551982429E-03       2    1    1        -0.8292430791E-02      0.1305046847E-01
          0                 3           1             2    1     1       0.1056842508E-04       2    1    1         0.5804703369E-03      0.9126275705E-03

    ------------------------------------------------
       NWT REQUIRED            3 OUTER ITERATIONS 
       AND A TOTAL OF          5 INNER ITERATIONS.
    ------------------------------------------------

 NO OUTPUT CONTROL FOR STRESS PERIOD   24   TIME STEP   19
 
 SOLVING FOR HEAD 
                                                   Max.-Head-Change                         Max.-Flux-Residual
  Residual-Control   Outer-Iter.   Inner-Iter.     Column Row Layer    Maximum-Head-Change  Column Row Layer    Maximum-Flux-Residual          L2-NORM 
          0                 1           2             2    1     1       0.1591935252E-02       2    1    1         0.8273865714E-01      0.1297978749E+00
          0                 2           2             2    1     1      -0.1548520149E-03       2    1    1        -0.8273874007E-02      0.1297125637E-01
          0                 3           1             2    1     1       0.1054484792E-04       2    1    1         0.5791713451E-03      0.9072717144E-03

    ------------------------------------------------
       NWT REQUIRED            3 OUTER ITERATIONS 
       AND A TOTAL OF          5 INNER ITERATIONS.
    ------------------------------------------------

 NO OUTPUT CONTROL FOR STRESS PERIOD   24   TIME STEP   20
 
 SOLVING FOR HEAD 
                                                   Max.-Head-Change                         Max.-Flux-Residual
  Residual-Control   Outer-Iter.   Inner-Iter.     Column Row Layer    Maximum-Head-Change  Column Row Layer    Maximum-Flux-Residual          L2-NORM 
          0                 1           2             2    1     1       0.1588395376E-02       2    1    1         0.8255410872E-01      0.1290198398E+00
          0                 2           2             2    1     1      -0.1545076807E-03       2    1    1        -0.8255419099E-02      0.1289412233E-01
          0                 3           1             2    1     1       0.1052140023E-04       2    1    1         0.5778795133E-03      0.9019231437E-03

    ------------------------------------------------
       NWT REQUIRED            3 OUTER ITERATIONS 
       AND A TOTAL OF          5 INNER ITERATIONS.
    ------------------------------------------------

 NO OUTPUT CONTROL FOR STRESS PERIOD   24   TIME STEP   21
 
 SOLVING FOR HEAD 
                                                   Max.-Head-Change                         Max.-Flux-Residual
  Residual-Control   Outer-Iter.   Inner-Iter.     Column Row Layer    Maximum-Head-Change  Column Row Layer    Maximum-Flux-Residual          L2-NORM 
          0                 1           2             2    1     1       0.1584874755E-02       2    1    1         0.8237056957E-01      0.1282693521E+00
          0                 2           2             2    1     1      -0.1541652196E-03       2    1    1        -0.8237065144E-02      0.1281976453E-01
          0                 3           1             2    1     1       0.1049807987E-04       2    1    1         0.5765947288E-03      0.8966823111E-03

    ------------------------------------------------
       NWT REQUIRED            3 OUTER ITERATIONS 
       AND A TOTAL OF          5 INNER ITERATIONS.
    ------------------------------------------------

 NO OUTPUT CONTROL FOR STRESS PERIOD   24   TIME STEP   22
 
 SOLVING FOR HEAD 
                                                   Max.-Head-Change                         Max.-Flux-Residual
  Residual-Control   Outer-Iter.   Inner-Iter.     Column Row Layer    Maximum-Head-Change  Column Row Layer    Maximum-Flux-Residual          L2-NORM 
          0                 1           2             2    1     1       0.1581373237E-02       2    1    1         0.8218802876E-01      0.1275351289E+00
          0                 2           2             2    1     1      -0.1538246160E-03       2    1    1        -0.8218810986E-02      0.1274666626E-01
          0                 3           1             2    1     1       0.1047488589E-04       2    1    1         0.5753169380E-03      0.8916499995E-03

    ------------------------------------------------
       NWT REQUIRED            3 OUTER ITERATIONS 
       AND A TOTAL OF          5 INNER ITERATIONS.
    ------------------------------------------------

 NO OUTPUT CONTROL FOR STRESS PERIOD   24   TIME STEP   23
 
 SOLVING FOR HEAD 
                                                   Max.-Head-Change                         Max.-Flux-Residual
  Residual-Control   Outer-Iter.   Inner-Iter.     Column Row Layer    Maximum-Head-Change  Column Row Layer    Maximum-Flux-Residual          L2-NORM 
          0                 1           2             2    1     1       0.1577869082E-02       2    1    1         0.8200535771E-01      0.1268235241E+00
          0                 2           2             2    1     1      -0.1534837567E-03       2    1    1        -0.8200543840E-02      0.1267598142E-01
          0                 3           1             2    1     1       0.1045167486E-04       2    1    1         0.5740382370E-03      0.8869607067E-03

    ------------------------------------------------
       NWT REQUIRED            3 OUTER ITERATIONS 
       AND A TOTAL OF          5 INNER ITERATIONS.
    ------------------------------------------------

 NO OUTPUT CONTROL FOR STRESS PERIOD   24   TIME STEP   24
 
 SOLVING FOR HEAD 
                                                   Max.-Head-Change                         Max.-Flux-Residual
  Residual-Control   Outer-Iter.   Inner-Iter.     Column Row Layer    Maximum-Head-Change  Column Row Layer    Maximum-Flux-Residual          L2-NORM 
          0                 1           2             2    1     1       0.1574405363E-02       2    1    1         0.8182479139E-01      0.1261286956E+00
          0                 2           2             2    1     1      -0.1531468305E-03       2    1    1        -0.8182487158E-02      0.1260704783E-01
          0                 3           1             2    1     1       0.1042873128E-04       2    1    1         0.5727742716E-03      0.8819947958E-03

    ------------------------------------------------
       NWT REQUIRED            3 OUTER ITERATIONS 
       AND A TOTAL OF          5 INNER ITERATIONS.
    ------------------------------------------------

 NO OUTPUT CONTROL FOR STRESS PERIOD   24   TIME STEP   25
 
 SOLVING FOR HEAD 
                                                   Max.-Head-Change                         Max.-Flux-Residual
  Residual-Control   Outer-Iter.   Inner-Iter.     Column Row Layer    Maximum-Head-Change  Column Row Layer    Maximum-Flux-Residual          L2-NORM 
          0                 1           2             2    1     1       0.1570960219E-02       2    1    1         0.8164520089E-01      0.1254520945E+00
          0                 2           2             2    1     1      -0.1528117114E-03       2    1    1        -0.8164528050E-02      0.1253957766E-01
          0                 3           1             2    1     1       0.1040591101E-04       2    1    1         0.5715171429E-03      0.8785143472E-03

    ------------------------------------------------
       NWT REQUIRED            3 OUTER ITERATIONS 
       AND A TOTAL OF          5 INNER ITERATIONS.
    ------------------------------------------------

 NO OUTPUT CONTROL FOR STRESS PERIOD   24   TIME STEP   26
 
 SOLVING FOR HEAD 
                                                   Max.-Head-Change                         Max.-Flux-Residual
  Residual-Control   Outer-Iter.   Inner-Iter.     Column Row Layer    Maximum-Head-Change  Column Row Layer    Maximum-Flux-Residual          L2-NORM 
          0                 1           2             2    1     1       0.1567533482E-02       2    1    1         0.8146657355E-01      0.1247946816E+00
          0                 2           2             2    1     1      -0.1524783822E-03       2    1    1        -0.8146665262E-02      0.1247423663E-01
          0                 3           1             2    1     1       0.1038321239E-04       2    1    1         0.5702667378E-03      0.8726409075E-03

    ------------------------------------------------
       NWT REQUIRED            3 OUTER ITERATIONS 
       AND A TOTAL OF          5 INNER ITERATIONS.
    ------------------------------------------------

 NO OUTPUT CONTROL FOR STRESS PERIOD   24   TIME STEP   27
 
 SOLVING FOR HEAD 
                                                   Max.-Head-Change                         Max.-Flux-Residual
  Residual-Control   Outer-Iter.   Inner-Iter.     Column Row Layer    Maximum-Head-Change  Column Row Layer    Maximum-Flux-Residual          L2-NORM 
          0                 1           2             2    1     1       0.1564103514E-02       2    1    1         0.8128777960E-01      0.1241495602E+00
          0                 2           2             2    1     1      -0.1521447389E-03       2    1    1        -0.8128785810E-02      0.1240996109E-01
          0                 3           1             2    1     1       0.1036049246E-04       2    1    1         0.5690151678E-03      0.8682120268E-03

    ------------------------------------------------
       NWT REQUIRED            3 OUTER ITERATIONS 
       AND A TOTAL OF          5 INNER ITERATIONS.
    ------------------------------------------------

 NO OUTPUT CONTROL FOR STRESS PERIOD   24   TIME STEP   28
 
 SOLVING FOR HEAD 
                                                   Max.-Head-Change                         Max.-Flux-Residual
  Residual-Control   Outer-Iter.   Inner-Iter.     Column Row Layer    Maximum-Head-Change  Column Row Layer    Maximum-Flux-Residual          L2-NORM 
          0                 1           2             2    1     1       0.1560713206E-02       2    1    1         0.8111106000E-01      0.1235224880E+00
          0                 2           2             2    1     1      -0.1518149539E-03       2    1    1        -0.8111113812E-02      0.1234759500E-01
          0                 3           1             2    1     1       0.1033803525E-04       2    1    1         0.5677781295E-03      0.8638463316E-03

    ------------------------------------------------
       NWT REQUIRED            3 OUTER ITERATIONS 
       AND A TOTAL OF          5 INNER ITERATIONS.
    ------------------------------------------------

 NO OUTPUT CONTROL FOR STRESS PERIOD   24   TIME STEP   29
 
 SOLVING FOR HEAD 
                                                   Max.-Head-Change                         Max.-Flux-Residual
  Residual-Control   Outer-Iter.   Inner-Iter.     Column Row Layer    Maximum-Head-Change  Column Row Layer    Maximum-Flux-Residual          L2-NORM 
          0                 1           2             2    1     1       0.1557340803E-02       2    1    1         0.8093527581E-01      0.1229130552E+00
          0                 2           2             2    1     1      -0.1514869106E-03       2    1    1        -0.8093535347E-02      0.1228699285E-01
          0                 3           1             2    1     1       0.1031569708E-04       2    1    1         0.5665476578E-03      0.8597545023E-03

    ------------------------------------------------
       NWT REQUIRED            3 OUTER ITERATIONS 
       AND A TOTAL OF          5 INNER ITERATIONS.
    ------------------------------------------------

 NO OUTPUT CONTROL FOR STRESS PERIOD   24   TIME STEP   30



 STREAM LISTING     PERIOD     24   STEP       30

 LAYER ROW COL. STREAM  RCH.  FLOW INTO     FLOW TO   FLOW OUT OF   OVRLND.     DIRECT     STREAM       STREAM     STREAM     STREAM   STREAMBED  STREAMBED
                SEG.NO.  NO.  STRM. RCH.    AQUIFER    STRM. RCH.    RUNOFF     PRECIP       ET          HEAD       DEPTH      WIDTH   CONDCTNC.   GRADIENT

   1    1    1     1     1    1.5750E+01  1.9239E-01   1.5558E+01  0.000E+00  0.000E+00  0.000E+00  1.09407E+03  1.025E+00  1.062E+01  4.780E-02  1.342E+00
   1    2    2     1     2    1.5558E+01  2.9660E-01   1.5261E+01  0.000E+00  0.000E+00  0.000E+00  1.08908E+03  1.020E+00  1.054E+01  7.378E-02  1.340E+00
   1    3    3     1     3    1.5261E+01  2.5164E-01   1.5010E+01  0.000E+00  0.000E+00  0.000E+00  1.08343E+03  1.015E+00  1.045E+01  6.268E-02  1.338E+00
   1    3    4     1     4    1.5010E+01  2.3064E-01   1.4779E+01  0.000E+00  0.000E+00  0.000E+00  1.07842E+03  1.010E+00  1.036E+01  5.752E-02  1.337E+00
   1    4    5     2     1    1.2779E+01  2.9653E-01   1.2482E+01  0.000E+00  0.000E+00  0.000E+00  1.07274E+03  8.017E-01  1.200E+01  7.800E-02  1.267E+00
   1    5    6     2     2    1.2482E+01  2.2750E-01   1.2255E+01  0.000E+00  0.000E+00  0.000E+00  1.06730E+03  7.917E-01  1.200E+01  6.000E-02  1.264E+00
   1    6    6     2     3    1.2255E+01  2.2697E-01   1.2028E+01  0.000E+00  0.000E+00  0.000E+00  1.06258E+03  7.829E-01  1.200E+01  6.000E-02  1.261E+00
   1    7    6     2     4    1.2028E+01  2.2645E-01   1.1802E+01  0.000E+00  0.000E+00  0.000E+00  1.05785E+03  7.741E-01  1.200E+01  6.000E-02  1.258E+00
   1    8    6     2     5    1.1802E+01  2.2591E-01   1.1576E+01  0.000E+00  0.000E+00  0.000E+00  1.05312E+03  7.652E-01  1.200E+01  6.000E-02  1.255E+00
   1    3    5     3     1    2.0000E+00  2.8252E-01   1.7175E+00  0.000E+00  0.000E+00  0.000E+00  1.07555E+03  1.909E+00  9.636E+00  7.227E-02  1.955E+00
   1    3    6     3     2    1.7175E+00  2.4905E-01   1.4684E+00  0.000E+00  0.000E+00  0.000E+00  1.07264E+03  1.727E+00  8.909E+00  6.682E-02  1.864E+00
   1    3    7     3     3    1.4684E+00  1.9718E-01   1.2712E+00  0.000E+00  0.000E+00  0.000E+00  1.06987E+03  1.555E+00  8.218E+00  5.547E-02  1.777E+00
   1    4    8     3     4    1.2712E+00  2.2567E-01   1.0456E+00  0.000E+00  0.000E+00  0.000E+00  1.06682E+03  1.364E+00  7.455E+00  6.709E-02  1.682E+00
   1    5    8     3     5    1.0456E+00  1.5790E-01   8.8768E-01  0.000E+00  0.000E+00  0.000E+00  1.06362E+03  1.164E+00  6.655E+00  4.991E-02  1.582E+00
   1    6    8     3     6    8.8768E-01  5.5980E-02   8.3170E-01  0.000E+00  0.000E+00  0.000E+00  1.06158E+03  1.036E+00  6.145E+00  1.844E-02  1.518E+00
   1    5   10     4     1    1.0000E+01  9.0919E-02   9.9091E+00  0.000E+00  0.000E+00  0.000E+00  1.07836E+03  6.368E-01  1.000E+01  2.500E-02  1.212E+00
   1    5    9     4     2    9.9091E+00  1.8158E-01   9.7275E+00  0.000E+00  0.000E+00  0.000E+00  1.07154E+03  6.315E-01  1.000E+01  5.000E-02  1.211E+00
   1    6    8     4     3    9.7275E+00  1.2689E-01   9.6006E+00  0.000E+00  0.000E+00  0.000E+00  1.06381E+03  6.256E-01  1.000E+01  3.500E-02  1.209E+00
   1    6    8     5     1    1.0432E+01  2.2686E-01   1.0205E+01  0.000E+00  0.000E+00  0.000E+00  1.05868E+03  6.790E-01  1.542E+01  6.166E-02  1.226E+00
   1    7    7     5     2    1.0205E+01  2.7894E-01   9.9265E+00  0.000E+00  0.000E+00  0.000E+00  1.05417E+03  6.732E-01  1.519E+01  7.594E-02  1.224E+00
   1    8    7     5     3    9.9265E+00  1.9221E-01   9.7343E+00  0.000E+00  0.000E+00  0.000E+00  1.04992E+03  6.676E-01  1.497E+01  5.241E-02  1.223E+00
   1    8    6     5     4    9.7343E+00  1.3577E-01   9.5985E+00  0.000E+00  0.000E+00  0.000E+00  1.04691E+03  6.637E-01  1.482E+01  3.706E-02  1.221E+00
   1    9    6     6     1    2.1174E+01  2.4608E-01   2.0928E+01  0.000E+00  0.000E+00  0.000E+00  1.04383E+03  1.101E+00  1.200E+01  6.000E-02  1.367E+00
   1   10    7     6     2    2.0928E+01  2.4562E-01   2.0682E+01  0.000E+00  0.000E+00  0.000E+00  1.03928E+03  1.094E+00  1.200E+01  6.000E-02  1.365E+00
   1   11    7     6     3    2.0682E+01  2.4515E-01   2.0437E+01  0.000E+00  0.000E+00  0.000E+00  1.03472E+03  1.086E+00  1.200E+01  6.000E-02  1.362E+00
   1   12    7     6     4    2.0437E+01  2.4469E-01   2.0193E+01  0.000E+00  0.000E+00  0.000E+00  1.03017E+03  1.078E+00  1.200E+01  6.000E-02  1.359E+00
   1   13    7     6     5    2.0193E+01 -4.1486E-02   2.0234E+01  0.000E+00  0.000E+00  0.000E+00  1.02698E+03  1.075E+00  1.200E+01  2.400E-01 -5.762E-02
   1   14    9     7     1    1.5000E+02  1.3328E+00   1.4867E+02  0.000E+00  0.000E+00  0.000E+00  1.03987E+03  2.288E+00  5.529E+01  5.593E-01  7.944E-01
   1   13    8     7     2    1.4867E+02  1.8096E+00   1.4686E+02  0.000E+00  0.000E+00  0.000E+00  1.03478E+03  2.279E+00  5.526E+01  6.148E-01  9.812E-01
   1   13    7     7     3    1.4686E+02  1.4148E+00   1.4544E+02  0.000E+00  0.000E+00  0.000E+00  1.02969E+03  2.271E+00  5.522E+01  5.585E-01  8.444E-01
   1   13    6     8     1    1.6568E+02  8.3640E-01   1.6484E+02  0.000E+00  0.000E+00  0.000E+00  1.02480E+03  2.921E+00  4.236E+01  4.316E-01  6.459E-01
   1   13    5     8     2    1.6484E+02  9.6751E-02   1.6474E+02  0.000E+00  0.000E+00  0.000E+00  1.01854E+03  2.918E+00  4.231E+01  4.312E-01  7.480E-02
   1   13    4     8     3    1.6474E+02 -2.7045E+00   1.6745E+02  0.000E+00  0.000E+00  0.000E+00  1.01230E+03  2.927E+00  4.244E+01  4.324E+00 -2.085E-01
   1   13    3     8     4    1.6745E+02 -3.7695E+00   1.7122E+02  0.000E+00  0.000E+00  0.000E+00  1.00607E+03  2.948E+00  4.274E+01  4.356E+00 -2.885E-01
   1   13    2     8     5    1.7122E+02 -2.6044E+00   1.7382E+02  0.000E+00  0.000E+00  0.000E+00  9.99844E+02  2.969E+00  4.304E+01  4.386E+00 -1.979E-01
   1   13    1     8     6    1.7382E+02 -1.9895E+00   1.7581E+02  0.000E+00  0.000E+00  0.000E+00  9.94858E+02  2.983E+00  4.326E+01  2.645E+00 -2.507E-01
   1    8    6     9     1    0.0000E+00  0.0000E+00   0.0000E+00  0.000E+00  0.000E+00  0.000E+00  1.07875E+03  0.000E+00  4.000E+00  0.000E+00  1.000E+00
   1    8    5     9     2    0.0000E+00  0.0000E+00   0.0000E+00  0.000E+00  0.000E+00  0.000E+00  1.07825E+03  0.000E+00  4.000E+00  0.000E+00  1.000E+00





UNSATURATED ZONE PACKAGE VOLUMETRIC BUDGET FOR  TIME STEP    30 STRESS PERIOD   24
  ------------------------------------------------------------------------------



     CUMULATIVE VOLUMES      L**3       RATES FOR THIS TIME STEP      L**3/T
     ------------------                 ------------------------

           IN:                                      IN:
           ---                                      ---
        INFILTRATION =   267531708.4968          INFILTRATION =           4.4075

          OUT:                                     OUT:
          ----                                     ----
              UZF ET =   200302035.2174                UZF ET =           0.7250
        UZF RECHARGE =      674797.3606          UZF RECHARGE =       0.0000E+00

            IN - OUT =    66554875.9188              IN - OUT =           3.6825

          STORAGE:                                 STORAGE:
          --------                                 --------
      STORAGE CHANGE =    66555522.2973        STORAGE CHANGE =           3.6825

 PERCENT DISCREPANCY IS DIFFERENCE BETWEEN IN-OUT MINUS CHANGE IN STORAGE
 DIVIDED BY THE AVERAGE OF IN AND OUT TIMES 100

 PERCENT DISCREPANCY =          -0.00     PERCENT DISCREPANCY =           0.00






1
  VOLUMETRIC BUDGET FOR ENTIRE MODEL AT END OF TIME STEP   30, STRESS PERIOD  24
  ------------------------------------------------------------------------------

     CUMULATIVE VOLUMES      L**3       RATES FOR THIS TIME STEP      L**3/T
     ------------------                 ------------------------

           IN:                                      IN:
           ---                                      ---
               AG WELLS  =           0.0000                 AG WELLS  =           0.0000
        DIVERSION SEGMEN =      848802.5000          DIVERSION SEGMEN =           0.0000
    TS         GW IRRIGA =           0.0000      TS         GW IRRIGA =           0.0000
    TION         SW IRRI =           0.0000      TION         SW IRRI =           0.0000
    GATION      SYSTEM L =           0.0000      GATION      SYSTEM L =           0.0000
    OSSES GW      SYSTEM =           0.1856      OSSES GW      SYSTEM =           0.0000

                TOTAL IN =      848802.6875                  TOTAL IN =           0.0000

          OUT:                                     OUT:
          ----                                     ----
               AG WELLS  =           0.0000                 AG WELLS  =           0.0000
        DIVERSION SEGMEN =           0.0000          DIVERSION SEGMEN =           0.0000
    TS         GW IRRIGA =           0.0000      TS         GW IRRIGA =           0.0000
    TION         SW IRRI =      848819.6875      TION         SW IRRI =           0.0000
    GATION      SYSTEM L =           0.0000      GATION      SYSTEM L =           0.0000
    OSSES GW      SYSTEM =           0.0000      OSSES GW      SYSTEM =           0.0000

               TOTAL OUT =      848819.6875                 TOTAL OUT =           0.0000

                IN - OUT =         -17.0000                  IN - OUT =           0.0000

     PERCENT DISCREPANCY =          -0.00         PERCENT DISCREPANCY =           0.00



1
  VOLUMETRIC BUDGET FOR ENTIRE MODEL AT END OF TIME STEP   30, STRESS PERIOD  24
  ------------------------------------------------------------------------------

     CUMULATIVE VOLUMES      L**3       RATES FOR THIS TIME STEP      L**3/T
     ------------------                 ------------------------

           IN:                                      IN:
           ---                                      ---
             STORAGE     =    33761056.0000               STORAGE     =           0.4373
       CONSTANT HEAD     =           0.0000         CONSTANT HEAD     =           0.0000
     HEAD DEP BOUNDS     =    17304490.0000       HEAD DEP BOUNDS     =           0.2856
      STREAM LEAKAGE     =   723299904.0000        STREAM LEAKAGE     =          11.0480
        UZF RECHARGE     =      674797.2500          UZF RECHARGE     =           0.0000
               GW ET     =           0.0000                 GW ET     =           0.0000
     SURFACE LEAKAGE     =           0.0000       SURFACE LEAKAGE     =           0.0000
           AG WELLS      =           0.0000             AG WELLS      =           0.0000

                TOTAL IN =   775040256.0000                  TOTAL IN =          11.7709

          OUT:                                     OUT:
          ----                                     ----
             STORAGE     =    96483032.0000               STORAGE     =           0.3723
       CONSTANT HEAD     =           0.0000         CONSTANT HEAD     =           0.0000
     HEAD DEP BOUNDS     =    17710448.0000       HEAD DEP BOUNDS     =           0.2892
      STREAM LEAKAGE     =   651369728.0000        STREAM LEAKAGE     =          11.1094
        UZF RECHARGE     =           0.0000          UZF RECHARGE     =           0.0000
               GW ET     =     9490485.0000                 GW ET     =           0.0000
     SURFACE LEAKAGE     =           0.0000       SURFACE LEAKAGE     =           0.0000
           AG WELLS      =           0.0000             AG WELLS      =           0.0000

               TOTAL OUT =   775053696.0000                 TOTAL OUT =          11.7709

                IN - OUT =      -13440.0000                  IN - OUT =       2.1935E-05

     PERCENT DISCREPANCY =          -0.00         PERCENT DISCREPANCY =           0.00






         TIME SUMMARY AT END OF TIME STEP   30 IN STRESS PERIOD   24
                    SECONDS     MINUTES      HOURS       DAYS        YEARS
                    -----------------------------------------------------------
   TIME STEP LENGTH  87667.      1461.1      24.352      1.0147     2.77799E-03
 STRESS PERIOD TIME 2.63000E+06  43833.      730.56      30.440     8.33397E-02
         TOTAL TIME 6.05767E+07 1.00961E+06  16827.      701.12      1.9196    
1
1
                            STRESS PERIOD NO.   25, LENGTH =   2630000.    
                            -----------------------------------------------

                              NUMBER OF TIME STEPS =    30

                               MULTIPLIER FOR DELT =     1.000

                            INITIAL TIME STEP SIZE =   87666.66    

 REUSING NON-PARAMETER GHB CELLS FROM LAST STRESS PERIOD

      2 GHB CELLS

 REUSING STREAM SEGMENT DATA FROM LAST STRESS PERIOD



            AREAL INFILTRATION RATE
 READING ON UNIT   19 WITH FORMAT: (10F4.0)            

            1           2           3           4           5           6           7           8           9          10
 ........................................................................................................................
   1   1.2000E-09   0.000       0.000       0.000       0.000       0.000       0.000       0.000       0.000       0.000    
   2   2.1000E-09  2.0000E-09  8.0000E-10  8.5000E-09   0.000       0.000       0.000       0.000       0.000       0.000    
   3   5.0000E-10  1.1000E-09  8.8000E-09  5.5000E-09   0.000       0.000       0.000       0.000       0.000       0.000    
   4   8.5000E-09  1.1000E-09  1.1000E-09  1.1000E-09  2.0000E-09   0.000       0.000       0.000       0.000       0.000    
   5   8.5000E-09  1.1000E-09  1.1000E-09  1.1000E-09  1.1000E-09   0.000       0.000       0.000       0.000       0.000    
   6   8.5000E-09  5.2000E-09  2.1000E-09  1.1000E-09  1.5000E-09   0.000       0.000       0.000       0.000       0.000    
   7   8.5000E-09  5.2000E-09  2.1000E-09  1.2000E-09  2.0000E-09   0.000       0.000       0.000       0.000       0.000    
   8   5.0000E-10  5.2000E-09  2.1000E-09  1.2000E-09  5.0000E-09   0.000       0.000       0.000       0.000       0.000    
   9   5.0000E-10  5.2000E-09  2.1000E-09  1.2000E-09  5.0000E-09   0.000       0.000       0.000       0.000       0.000    
  10   5.0000E-10  5.2000E-09  2.1000E-09  1.2000E-09  5.8000E-09   0.000       0.000       0.000       0.000       0.000    
  11   1.0000E-10  1.1000E-09  1.1000E-09  1.2000E-09  5.0000E-09   0.000       0.000       0.000       0.000       0.000    
  12   1.1000E-09  1.1000E-09  1.1000E-09  1.1000E-09  2.0000E-09   0.000       0.000       0.000       0.000       0.000    
  13   1.1000E-09  2.2000E-09  2.2000E-09  2.1000E-09  1.0000E-09   0.000       0.000       0.000       0.000       0.000    
  14   2.0000E-10  5.5000E-09  5.5000E-09  5.2000E-09  1.0000E-09   0.000       0.000       0.000       0.000       0.000    
  15    0.000      8.8000E-09  8.8000E-09   0.000       0.000       0.000       0.000       0.000       0.000       0.000    

                  ET RATE =  5.000000E-10

 USING ET EXTINCTION DEPTH FROM PREVIOUS STRESS PERIOD. CURRENT PERIOD IS:      25

 USING EXTINCTION WATER CONTENT FROM PREVIOUS STRESS PERIOD. CURRENT PERIOD IS:      25

 USING AIR ENTRY PRESSURE FROM PREVIOUS STRESS PERIOD. CURRENT PERIOD IS:      25

 USING ROOT PRESSURE HEAD FROM PREVIOUS STRESS PERIOD. CURRENT PERIOD IS:      25

 USING ROOT ACTIVITY FROM PREVIOUS STRESS PERIOD. CURRENT PERIOD IS:      25

 PROCESSING AG STRESS PERIOD DATA

 READING AG STRESS PERIOD DATA

 READING IRRIGATION SEGMENT

 READING IRRIGATION WELL

 READING SUPPLEMENTAL WELL

 END PROCESSING AG STRESS PERIOD DATA OPTIONS
 
 SOLVING FOR HEAD 
                                                   Max.-Head-Change                         Max.-Flux-Residual
  Residual-Control   Outer-Iter.   Inner-Iter.     Column Row Layer    Maximum-Head-Change  Column Row Layer    Maximum-Flux-Residual          L2-NORM 
          0                 1           2             2    1     1       0.1553741474E-02       2    1    1         0.8075929893E-01      0.1286986902E+00
          0                 2           2             2    1     1      -0.1511367971E-03       2    1    1        -0.8075937879E-02      0.1284618784E-01
          0                 3           1             2    1     1       0.1029185508E-04       2    1    1         0.5653158093E-03      0.8969630617E-03

    ------------------------------------------------
       NWT REQUIRED            3 OUTER ITERATIONS 
       AND A TOTAL OF          5 INNER ITERATIONS.
    ------------------------------------------------

 NO OUTPUT CONTROL FOR STRESS PERIOD   25   TIME STEP    1
 
 SOLVING FOR HEAD 
                                                   Max.-Head-Change                         Max.-Flux-Residual
  Residual-Control   Outer-Iter.   Inner-Iter.     Column Row Layer    Maximum-Head-Change  Column Row Layer    Maximum-Flux-Residual          L2-NORM 
          0                 1           2             2    1     1       0.1550101482E-02       2    1    1         0.8057379465E-01      0.1307899175E+00
          0                 2           2             2    1     1      -0.1507827259E-03       2    1    1        -0.8057387479E-02      0.1304771162E-01
          0                 3           1             2    1     1       0.1026774470E-04       2    1    1         0.5640173092E-03      0.9105415206E-03

    ------------------------------------------------
       NWT REQUIRED            3 OUTER ITERATIONS 
       AND A TOTAL OF          5 INNER ITERATIONS.
    ------------------------------------------------

 NO OUTPUT CONTROL FOR STRESS PERIOD   25   TIME STEP    2
 
 SOLVING FOR HEAD 
                                                   Max.-Head-Change                         Max.-Flux-Residual
  Residual-Control   Outer-Iter.   Inner-Iter.     Column Row Layer    Maximum-Head-Change  Column Row Layer    Maximum-Flux-Residual          L2-NORM 
          0                 1           2             2    1     1       0.1546459607E-02       2    1    1         0.8038394209E-01      0.1295839070E+00
          0                 2           2             2    1     1      -0.1504284694E-03       2    1    1        -0.8038402157E-02      0.1293041665E-01
          0                 3           1             2    1     1       0.1024362060E-04       2    1    1         0.5626883071E-03      0.9025092722E-03

    ------------------------------------------------
       NWT REQUIRED            3 OUTER ITERATIONS 
       AND A TOTAL OF          5 INNER ITERATIONS.
    ------------------------------------------------

 NO OUTPUT CONTROL FOR STRESS PERIOD   25   TIME STEP    3
 
 SOLVING FOR HEAD 
                                                   Max.-Head-Change                         Max.-Flux-Residual
  Residual-Control   Outer-Iter.   Inner-Iter.     Column Row Layer    Maximum-Head-Change  Column Row Layer    Maximum-Flux-Residual          L2-NORM 
          0                 1           2             2    1     1       0.1542858987E-02       2    1    1         0.8019623556E-01      0.1284561095E+00
          0                 2           2             2    1     1      -0.1500782267E-03       2    1    1        -0.8019631459E-02      0.1282005765E-01
          0                 3           1             2    1     1       0.1021977032E-04       2    1    1         0.5613743644E-03      0.8948904083E-03

    ------------------------------------------------
       NWT REQUIRED            3 OUTER ITERATIONS 
       AND A TOTAL OF          5 INNER ITERATIONS.
    ------------------------------------------------

 NO OUTPUT CONTROL FOR STRESS PERIOD   25   TIME STEP    4
 
 SOLVING FOR HEAD 
                                                   Max.-Head-Change                         Max.-Flux-Residual
  Residual-Control   Outer-Iter.   Inner-Iter.     Column Row Layer    Maximum-Head-Change  Column Row Layer    Maximum-Flux-Residual          L2-NORM 
          0                 1           2             2    1     1       0.1539256173E-02       2    1    1         0.8000842557E-01      0.1274040223E+00
          0                 2           2             2    1     1      -0.1497277701E-03       2    1    1        -0.8000850389E-02      0.1271793942E-01
          0                 3           1             2    1     1       0.1019590585E-04       2    1    1         0.5600596962E-03      0.8881613975E-03

    ------------------------------------------------
       NWT REQUIRED            3 OUTER ITERATIONS 
       AND A TOTAL OF          5 INNER ITERATIONS.
    ------------------------------------------------

 NO OUTPUT CONTROL FOR STRESS PERIOD   25   TIME STEP    5
 
 SOLVING FOR HEAD 
                                                   Max.-Head-Change                         Max.-Flux-Residual
  Residual-Control   Outer-Iter.   Inner-Iter.     Column Row Layer    Maximum-Head-Change  Column Row Layer    Maximum-Flux-Residual          L2-NORM 
          0                 1           2             2    1     1       0.1535694258E-02       2    1    1         0.7982274440E-01      0.1264071667E+00
          0                 2           2             2    1     1      -0.1493812925E-03       2    1    1        -0.7982282244E-02      0.1262054712E-01
          0                 3           1             2    1     1       0.1017231189E-04       2    1    1         0.5587599226E-03      0.8816934981E-03

    ------------------------------------------------
       NWT REQUIRED            3 OUTER ITERATIONS 
       AND A TOTAL OF          5 INNER ITERATIONS.
    ------------------------------------------------

 NO OUTPUT CONTROL FOR STRESS PERIOD   25   TIME STEP    6
 
 SOLVING FOR HEAD 
                                                   Max.-Head-Change                         Max.-Flux-Residual
  Residual-Control   Outer-Iter.   Inner-Iter.     Column Row Layer    Maximum-Head-Change  Column Row Layer    Maximum-Flux-Residual          L2-NORM 
          0                 1           2             2    1     1       0.1532129864E-02       2    1    1         0.7963694112E-01      0.1254722658E+00
          0                 2           2             2    1     1      -0.1490345731E-03       2    1    1        -0.7963701851E-02      0.1252882754E-01
          0                 3           1             2    1     1       0.1014870136E-04       2    1    1         0.5574592936E-03      0.8751057837E-03

    ------------------------------------------------
       NWT REQUIRED            3 OUTER ITERATIONS 
       AND A TOTAL OF          5 INNER ITERATIONS.
    ------------------------------------------------

 NO OUTPUT CONTROL FOR STRESS PERIOD   25   TIME STEP    7
 
 SOLVING FOR HEAD 
                                                   Max.-Head-Change                         Max.-Flux-Residual
  Residual-Control   Outer-Iter.   Inner-Iter.     Column Row Layer    Maximum-Head-Change  Column Row Layer    Maximum-Flux-Residual          L2-NORM 
          0                 1           2             2    1     1       0.1528606019E-02       2    1    1         0.7945325206E-01      0.1245822200E+00
          0                 2           2             2    1     1      -0.1486917987E-03       2    1    1        -0.7945332902E-02      0.1244190539E-01
          0                 3           1             2    1     1       0.1012535993E-04       2    1    1         0.5561734754E-03      0.8696329552E-03

    ------------------------------------------------
       NWT REQUIRED            3 OUTER ITERATIONS 
       AND A TOTAL OF          5 INNER ITERATIONS.
    ------------------------------------------------

 NO OUTPUT CONTROL FOR STRESS PERIOD   25   TIME STEP    8
 
 SOLVING FOR HEAD 
                                                   Max.-Head-Change                         Max.-Flux-Residual
  Residual-Control   Outer-Iter.   Inner-Iter.     Column Row Layer    Maximum-Head-Change  Column Row Layer    Maximum-Flux-Residual          L2-NORM 
          0                 1           2             2    1     1       0.1525079251E-02       2    1    1         0.7926942265E-01      0.1237389923E+00
          0                 2           2             2    1     1      -0.1483487396E-03       2    1    1        -0.7926949916E-02      0.1235888882E-01
          0                 3           1             2    1     1       0.1010199910E-04       2    1    1         0.5548866610E-03      0.8637650840E-03

    ------------------------------------------------
       NWT REQUIRED            3 OUTER ITERATIONS 
       AND A TOTAL OF          5 INNER ITERATIONS.
    ------------------------------------------------

 NO OUTPUT CONTROL FOR STRESS PERIOD   25   TIME STEP    9
 
 SOLVING FOR HEAD 
                                                   Max.-Head-Change                         Max.-Flux-Residual
  Residual-Control   Outer-Iter.   Inner-Iter.     Column Row Layer    Maximum-Head-Change  Column Row Layer    Maximum-Flux-Residual          L2-NORM 
          0                 1           2             2    1     1       0.1521571118E-02       2    1    1         0.7908656305E-01      0.1229332706E+00
          0                 2           2             2    1     1      -0.1480074932E-03       2    1    1        -0.7908663905E-02      0.1227989633E-01
          0                 3           1             2    1     1       0.1007876157E-04       2    1    1         0.5536066498E-03      0.8583746292E-03

    ------------------------------------------------
       NWT REQUIRED            3 OUTER ITERATIONS 
       AND A TOTAL OF          5 INNER ITERATIONS.
    ------------------------------------------------

 NO OUTPUT CONTROL FOR STRESS PERIOD   25   TIME STEP   10
 
 SOLVING FOR HEAD 
                                                   Max.-Head-Change                         Max.-Flux-Residual
  Residual-Control   Outer-Iter.   Inner-Iter.     Column Row Layer    Maximum-Head-Change  Column Row Layer    Maximum-Flux-Residual          L2-NORM 
          0                 1           2             2    1     1       0.1518103031E-02       2    1    1         0.7890579121E-01      0.1221635116E+00
          0                 2           2             2    1     1      -0.1476701422E-03       2    1    1        -0.7890586672E-02      0.1220387423E-01
          0                 3           1             2    1     1       0.1005578935E-04       2    1    1         0.5523412514E-03      0.8531182381E-03

    ------------------------------------------------
       NWT REQUIRED            3 OUTER ITERATIONS 
       AND A TOTAL OF          5 INNER ITERATIONS.
    ------------------------------------------------

 NO OUTPUT CONTROL FOR STRESS PERIOD   25   TIME STEP   11
 
 SOLVING FOR HEAD 
                                                   Max.-Head-Change                         Max.-Flux-Residual
  Residual-Control   Outer-Iter.   Inner-Iter.     Column Row Layer    Maximum-Head-Change  Column Row Layer    Maximum-Flux-Residual          L2-NORM 
          0                 1           2             2    1     1       0.1514631645E-02       2    1    1         0.7872485263E-01      0.1214257824E+00
          0                 2           2             2    1     1      -0.1473324697E-03       2    1    1        -0.7872492752E-02      0.1213158795E-01
          0                 3           1             2    1     1       0.1003279465E-04       2    1    1         0.5510746509E-03      0.8480952486E-03

    ------------------------------------------------
       NWT REQUIRED            3 OUTER ITERATIONS 
       AND A TOTAL OF          5 INNER ITERATIONS.
    ------------------------------------------------

 NO OUTPUT CONTROL FOR STRESS PERIOD   25   TIME STEP   12
 
 SOLVING FOR HEAD 
                                                   Max.-Head-Change                         Max.-Flux-Residual
  Residual-Control   Outer-Iter.   Inner-Iter.     Column Row Layer    Maximum-Head-Change  Column Row Layer    Maximum-Flux-Residual          L2-NORM 
          0                 1           2             2    1     1       0.1511178400E-02       2    1    1         0.7854486454E-01      0.1207160373E+00
          0                 2           2             2    1     1      -0.1469965626E-03       2    1    1        -0.7854493902E-02      0.1206141123E-01
          0                 3           1             2    1     1       0.1000992089E-04       2    1    1         0.5498147374E-03      0.8434866597E-03

    ------------------------------------------------
       NWT REQUIRED            3 OUTER ITERATIONS 
       AND A TOTAL OF          5 INNER ITERATIONS.
    ------------------------------------------------

 NO OUTPUT CONTROL FOR STRESS PERIOD   25   TIME STEP   13
 
 SOLVING FOR HEAD 
                                                   Max.-Head-Change                         Max.-Flux-Residual
  Residual-Control   Outer-Iter.   Inner-Iter.     Column Row Layer    Maximum-Head-Change  Column Row Layer    Maximum-Flux-Residual          L2-NORM 
          0                 1           2             2    1     1       0.1507764715E-02       2    1    1         0.7836693872E-01      0.1200321248E+00
          0                 2           2             2    1     1      -0.1466645034E-03       2    1    1        -0.7836701264E-02      0.1199412683E-01
          0                 3           1             2    1     1       0.9987308888E-05       2    1    1         0.5485692570E-03      0.8388114280E-03

    ------------------------------------------------
       NWT REQUIRED            3 OUTER ITERATIONS 
       AND A TOTAL OF          5 INNER ITERATIONS.
    ------------------------------------------------

 NO OUTPUT CONTROL FOR STRESS PERIOD   25   TIME STEP   14
 
 SOLVING FOR HEAD 
                                                   Max.-Head-Change                         Max.-Flux-Residual
  Residual-Control   Outer-Iter.   Inner-Iter.     Column Row Layer    Maximum-Head-Change  Column Row Layer    Maximum-Flux-Residual          L2-NORM 
          0                 1           2             2    1     1       0.1504347218E-02       2    1    1         0.7818882070E-01      0.1193734060E+00
          0                 2           2             2    1     1      -0.1463320733E-03       2    1    1        -0.7818889419E-02      0.1192897069E-01
          0                 3           1             2    1     1       0.9964671563E-05       2    1    1         0.5473224312E-03      0.8343356335E-03

    ------------------------------------------------
       NWT REQUIRED            3 OUTER ITERATIONS 
       AND A TOTAL OF          5 INNER ITERATIONS.
    ------------------------------------------------

 NO OUTPUT CONTROL FOR STRESS PERIOD   25   TIME STEP   15
 
 SOLVING FOR HEAD 
                                                   Max.-Head-Change                         Max.-Flux-Residual
  Residual-Control   Outer-Iter.   Inner-Iter.     Column Row Layer    Maximum-Head-Change  Column Row Layer    Maximum-Flux-Residual          L2-NORM 
          0                 1           2             2    1     1       0.1500947484E-02       2    1    1         0.7801162670E-01      0.1187317752E+00
          0                 2           2             2    1     1      -0.1460013712E-03       2    1    1        -0.7801169972E-02      0.1186528652E-01
          0                 3           1             2    1     1       0.9942151865E-05       2    1    1         0.5460820591E-03      0.8298990890E-03

    ------------------------------------------------
       NWT REQUIRED            3 OUTER ITERATIONS 
       AND A TOTAL OF          5 INNER ITERATIONS.
    ------------------------------------------------

 NO OUTPUT CONTROL FOR STRESS PERIOD   25   TIME STEP   16
 
 SOLVING FOR HEAD 
                                                   Max.-Head-Change                         Max.-Flux-Residual
  Residual-Control   Outer-Iter.   Inner-Iter.     Column Row Layer    Maximum-Head-Change  Column Row Layer    Maximum-Flux-Residual          L2-NORM 
          0                 1           2             2    1     1       0.1497565288E-02       2    1    1         0.7783535373E-01      0.1181155246E+00
          0                 2           2             2    1     1      -0.1456723749E-03       2    1    1        -0.7783542628E-02      0.1180402234E-01
          0                 3           1             2    1     1       0.9919748373E-05       2    1    1         0.5448481365E-03      0.8256596642E-03

    ------------------------------------------------
       NWT REQUIRED            3 OUTER ITERATIONS 
       AND A TOTAL OF          5 INNER ITERATIONS.
    ------------------------------------------------

 NO OUTPUT CONTROL FOR STRESS PERIOD   25   TIME STEP   17
 
 SOLVING FOR HEAD 
                                                   Max.-Head-Change                         Max.-Flux-Residual
  Residual-Control   Outer-Iter.   Inner-Iter.     Column Row Layer    Maximum-Head-Change  Column Row Layer    Maximum-Flux-Residual          L2-NORM 
          0                 1           2             2    1     1       0.1494200449E-02       2    1    1         0.7765999007E-01      0.1175150477E+00
          0                 2           2             2    1     1      -0.1453450674E-03       2    1    1        -0.7766006230E-02      0.1174479167E-01
          0                 3           1             2    1     1       0.9897459904E-05       2    1    1         0.5436205986E-03      0.8215930488E-03

    ------------------------------------------------
       NWT REQUIRED            3 OUTER ITERATIONS 
       AND A TOTAL OF          5 INNER ITERATIONS.
    ------------------------------------------------

 NO OUTPUT CONTROL FOR STRESS PERIOD   25   TIME STEP   18
 
 SOLVING FOR HEAD 
                                                   Max.-Head-Change                         Max.-Flux-Residual
  Residual-Control   Outer-Iter.   Inner-Iter.     Column Row Layer    Maximum-Head-Change  Column Row Layer    Maximum-Flux-Residual          L2-NORM 
          0                 1           2             2    1     1       0.1490852816E-02       2    1    1         0.7748552632E-01      0.1169326613E+00
          0                 2           2             2    1     1      -0.1450194332E-03       2    1    1        -0.7748559806E-02      0.1168722091E-01
          0                 3           1             2    1     1       0.9875285512E-05       2    1    1         0.5423993408E-03      0.8176037137E-03

    ------------------------------------------------
       NWT REQUIRED            3 OUTER ITERATIONS 
       AND A TOTAL OF          5 INNER ITERATIONS.
    ------------------------------------------------

 NO OUTPUT CONTROL FOR STRESS PERIOD   25   TIME STEP   19
 
 SOLVING FOR HEAD 
                                                   Max.-Head-Change                         Max.-Flux-Residual
  Residual-Control   Outer-Iter.   Inner-Iter.     Column Row Layer    Maximum-Head-Change  Column Row Layer    Maximum-Flux-Residual          L2-NORM 
          0                 1           2             2    1     1       0.1487543925E-02       2    1    1         0.7731307668E-01      0.1163654473E+00
          0                 2           2             2    1     1      -0.1446975680E-03       2    1    1        -0.7731314802E-02      0.1163076475E-01
          0                 3           1             2    1     1       0.9853367910E-05       2    1    1         0.5411922068E-03      0.8134993430E-03

    ------------------------------------------------
       NWT REQUIRED            3 OUTER ITERATIONS 
       AND A TOTAL OF          5 INNER ITERATIONS.
    ------------------------------------------------

 NO OUTPUT CONTROL FOR STRESS PERIOD   25   TIME STEP   20
 
 SOLVING FOR HEAD 
                                                   Max.-Head-Change                         Max.-Flux-Residual
  Residual-Control   Outer-Iter.   Inner-Iter.     Column Row Layer    Maximum-Head-Change  Column Row Layer    Maximum-Flux-Residual          L2-NORM 
          0                 1           2             2    1     1       0.1484230332E-02       2    1    1         0.7714039182E-01      0.1158122987E+00
          0                 2           2             2    1     1      -0.1443752445E-03       2    1    1        -0.7714046252E-02      0.1157599847E-01
          0                 3           1             2    1     1       0.9831418595E-05       2    1    1         0.5399833896E-03      0.8098693583E-03

    ------------------------------------------------
       NWT REQUIRED            3 OUTER ITERATIONS 
       AND A TOTAL OF          5 INNER ITERATIONS.
    ------------------------------------------------

 NO OUTPUT CONTROL FOR STRESS PERIOD   25   TIME STEP   21
 
 SOLVING FOR HEAD 
                                                   Max.-Head-Change                         Max.-Flux-Residual
  Residual-Control   Outer-Iter.   Inner-Iter.     Column Row Layer    Maximum-Head-Change  Column Row Layer    Maximum-Flux-Residual          L2-NORM 
          0                 1           2             2    1     1       0.1480933603E-02       2    1    1         0.7696858519E-01      0.1152730785E+00
          0                 2           2             2    1     1      -0.1440545622E-03       2    1    1        -0.7696865559E-02      0.1152242782E-01
          0                 3           1             2    1     1       0.9809581225E-05       2    1    1         0.5387807459E-03      0.8061491262E-03

    ------------------------------------------------
       NWT REQUIRED            3 OUTER ITERATIONS 
       AND A TOTAL OF          5 INNER ITERATIONS.
    ------------------------------------------------

 NO OUTPUT CONTROL FOR STRESS PERIOD   25   TIME STEP   22
 
 SOLVING FOR HEAD 
                                                   Max.-Head-Change                         Max.-Flux-Residual
  Residual-Control   Outer-Iter.   Inner-Iter.     Column Row Layer    Maximum-Head-Change  Column Row Layer    Maximum-Flux-Residual          L2-NORM 
          0                 1           2             2    1     1       0.1477653495E-02       2    1    1         0.7679765291E-01      0.1147495128E+00
          0                 2           2             2    1     1      -0.1437354968E-03       2    1    1        -0.7679772284E-02      0.1147043811E-01
          0                 3           1             2    1     1       0.9787854382E-05       2    1    1         0.5375842351E-03      0.8025171669E-03

    ------------------------------------------------
       NWT REQUIRED            3 OUTER ITERATIONS 
       AND A TOTAL OF          5 INNER ITERATIONS.
    ------------------------------------------------

 NO OUTPUT CONTROL FOR STRESS PERIOD   25   TIME STEP   23
 
 SOLVING FOR HEAD 
                                                   Max.-Head-Change                         Max.-Flux-Residual
  Residual-Control   Outer-Iter.   Inner-Iter.     Column Row Layer    Maximum-Head-Change  Column Row Layer    Maximum-Flux-Residual          L2-NORM 
          0                 1           2             2    1     1       0.1474389992E-02       2    1    1         0.7662758238E-01      0.1142369557E+00
          0                 2           2             2    1     1      -0.1434180459E-03       2    1    1        -0.7662765178E-02      0.1141932569E-01
          0                 3           1             2    1     1       0.9766237355E-05       2    1    1         0.5363937348E-03      0.7989545217E-03

    ------------------------------------------------
       NWT REQUIRED            3 OUTER ITERATIONS 
       AND A TOTAL OF          5 INNER ITERATIONS.
    ------------------------------------------------

 NO OUTPUT CONTROL FOR STRESS PERIOD   25   TIME STEP   24
 
 SOLVING FOR HEAD 
                                                   Max.-Head-Change                         Max.-Flux-Residual
  Residual-Control   Outer-Iter.   Inner-Iter.     Column Row Layer    Maximum-Head-Change  Column Row Layer    Maximum-Flux-Residual          L2-NORM 
          0                 1           2             2    1     1       0.1471142828E-02       2    1    1         0.7645837286E-01      0.1137366223E+00
          0                 2           2             2    1     1      -0.1431021852E-03       2    1    1        -0.7645844202E-02      0.1136964474E-01
          0                 3           1             2    1     1       0.9744728252E-05       2    1    1         0.5352092611E-03      0.7954715184E-03

    ------------------------------------------------
       NWT REQUIRED            3 OUTER ITERATIONS 
       AND A TOTAL OF          5 INNER ITERATIONS.
    ------------------------------------------------

 NO OUTPUT CONTROL FOR STRESS PERIOD   25   TIME STEP   25
 
 SOLVING FOR HEAD 
                                                   Max.-Head-Change                         Max.-Flux-Residual
  Residual-Control   Outer-Iter.   Inner-Iter.     Column Row Layer    Maximum-Head-Change  Column Row Layer    Maximum-Flux-Residual          L2-NORM 
          0                 1           2             2    1     1       0.1467911963E-02       2    1    1         0.7629001046E-01      0.1132446291E+00
          0                 2           2             2    1     1      -0.1427879092E-03       2    1    1        -0.7629007912E-02      0.1132081917E-01
          0                 3           1             2    1     1       0.9723327071E-05       2    1    1         0.5340307207E-03      0.7920957102E-03

    ------------------------------------------------
       NWT REQUIRED            3 OUTER ITERATIONS 
       AND A TOTAL OF          5 INNER ITERATIONS.
    ------------------------------------------------

 NO OUTPUT CONTROL FOR STRESS PERIOD   25   TIME STEP   26
 
 SOLVING FOR HEAD 
                                                   Max.-Head-Change                         Max.-Flux-Residual
  Residual-Control   Outer-Iter.   Inner-Iter.     Column Row Layer    Maximum-Head-Change  Column Row Layer    Maximum-Flux-Residual          L2-NORM 
          0                 1           2             2    1     1       0.1464697288E-02       2    1    1         0.7612249315E-01      0.1127638445E+00
          0                 2           2             2    1     1      -0.1424752085E-03       2    1    1        -0.7612256135E-02      0.1127292876E-01
          0                 3           1             2    1     1       0.9702033814E-05       2    1    1         0.5328581099E-03      0.7887319639E-03

    ------------------------------------------------
       NWT REQUIRED            3 OUTER ITERATIONS 
       AND A TOTAL OF          5 INNER ITERATIONS.
    ------------------------------------------------

 NO OUTPUT CONTROL FOR STRESS PERIOD   25   TIME STEP   27
 
 SOLVING FOR HEAD 
                                                   Max.-Head-Change                         Max.-Flux-Residual
  Residual-Control   Outer-Iter.   Inner-Iter.     Column Row Layer    Maximum-Head-Change  Column Row Layer    Maximum-Flux-Residual          L2-NORM 
          0                 1           2             2    1     1       0.1461498541E-02       2    1    1         0.7595581531E-01      0.1122978840E+00
          0                 2           2             2    1     1      -0.1421640571E-03       2    1    1        -0.7595588320E-02      0.1122646269E-01
          0                 3           1             2    1     1       0.9680845166E-05       2    1    1         0.5316913462E-03      0.7855073727E-03

    ------------------------------------------------
       NWT REQUIRED            3 OUTER ITERATIONS 
       AND A TOTAL OF          5 INNER ITERATIONS.
    ------------------------------------------------

 NO OUTPUT CONTROL FOR STRESS PERIOD   25   TIME STEP   28
 
 SOLVING FOR HEAD 
                                                   Max.-Head-Change                         Max.-Flux-Residual
  Residual-Control   Outer-Iter.   Inner-Iter.     Column Row Layer    Maximum-Head-Change  Column Row Layer    Maximum-Flux-Residual          L2-NORM 
          0                 1           2             2    1     1       0.1458294094E-02       2    1    1         0.7578884092E-01      0.1118374095E+00
          0                 2           2             2    1     1      -0.1418523508E-03       2    1    1        -0.7578890819E-02      0.1118052156E-01
          0                 3           1             2    1     1       0.9659619123E-05       2    1    1         0.5305225208E-03      0.7823733566E-03

    ------------------------------------------------
       NWT REQUIRED            3 OUTER ITERATIONS 
       AND A TOTAL OF          5 INNER ITERATIONS.
    ------------------------------------------------

 NO OUTPUT CONTROL FOR STRESS PERIOD   25   TIME STEP   29
 
 SOLVING FOR HEAD 
                                                   Max.-Head-Change                         Max.-Flux-Residual
  Residual-Control   Outer-Iter.   Inner-Iter.     Column Row Layer    Maximum-Head-Change  Column Row Layer    Maximum-Flux-Residual          L2-NORM 
          0                 1           2             2    1     1       0.1455103363E-02       2    1    1         0.7562381576E-01      0.1118419498E+00
          0                 2           2             2    1     1      -0.1415419796E-03       2    1    1        -0.7562388297E-02      0.1117995774E-01
          0                 3           1             2    1     1       0.9638484200E-05       2    1    1         0.5293673581E-03      0.7821914615E-03

    ------------------------------------------------
       NWT REQUIRED            3 OUTER ITERATIONS 
       AND A TOTAL OF          5 INNER ITERATIONS.
    ------------------------------------------------

 NO OUTPUT CONTROL FOR STRESS PERIOD   25   TIME STEP   30



 STREAM LISTING     PERIOD     25   STEP       30

 LAYER ROW COL. STREAM  RCH.  FLOW INTO     FLOW TO   FLOW OUT OF   OVRLND.     DIRECT     STREAM       STREAM     STREAM     STREAM   STREAMBED  STREAMBED
                SEG.NO.  NO.  STRM. RCH.    AQUIFER    STRM. RCH.    RUNOFF     PRECIP       ET          HEAD       DEPTH      WIDTH   CONDCTNC.   GRADIENT

   1    1    1     1     1    1.4942E+01  1.8668E-01   1.4756E+01  0.000E+00  0.000E+00  0.000E+00  1.09406E+03  1.009E+00  1.035E+01  4.656E-02  1.336E+00
   1    2    2     1     2    1.4756E+01  2.8774E-01   1.4468E+01  0.000E+00  0.000E+00  0.000E+00  1.08906E+03  1.004E+00  1.027E+01  7.186E-02  1.335E+00
   1    3    3     1     3    1.4468E+01  2.4407E-01   1.4224E+01  0.000E+00  0.000E+00  0.000E+00  1.08342E+03  9.991E-01  1.017E+01  6.103E-02  1.333E+00
   1    3    4     1     4    1.4224E+01  2.2366E-01   1.4000E+01  0.000E+00  0.000E+00  0.000E+00  1.07840E+03  9.944E-01  1.009E+01  5.599E-02  1.331E+00
   1    4    5     2     1    1.2000E+01  2.9419E-01   1.1706E+01  0.000E+00  0.000E+00  0.000E+00  1.07271E+03  7.717E-01  1.200E+01  7.800E-02  1.257E+00
   1    5    6     2     2    1.1706E+01  2.2569E-01   1.1480E+01  0.000E+00  0.000E+00  0.000E+00  1.06727E+03  7.615E-01  1.200E+01  6.000E-02  1.254E+00
   1    6    6     2     3    1.1480E+01  2.2515E-01   1.1255E+01  0.000E+00  0.000E+00  0.000E+00  1.06255E+03  7.526E-01  1.200E+01  6.000E-02  1.251E+00
   1    7    6     2     4    1.1255E+01  2.2462E-01   1.1031E+01  0.000E+00  0.000E+00  0.000E+00  1.05782E+03  7.436E-01  1.200E+01  6.000E-02  1.248E+00
   1    8    6     2     5    1.1031E+01  2.2408E-01   1.0807E+01  0.000E+00  0.000E+00  0.000E+00  1.05309E+03  7.346E-01  1.200E+01  6.000E-02  1.245E+00
   1    3    5     3     1    2.0000E+00  2.8252E-01   1.7175E+00  0.000E+00  0.000E+00  0.000E+00  1.07555E+03  1.909E+00  9.636E+00  7.227E-02  1.955E+00
   1    3    6     3     2    1.7175E+00  2.4905E-01   1.4684E+00  0.000E+00  0.000E+00  0.000E+00  1.07264E+03  1.727E+00  8.909E+00  6.682E-02  1.864E+00
   1    3    7     3     3    1.4684E+00  1.9718E-01   1.2712E+00  0.000E+00  0.000E+00  0.000E+00  1.06987E+03  1.555E+00  8.218E+00  5.547E-02  1.777E+00
   1    4    8     3     4    1.2712E+00  2.2567E-01   1.0456E+00  0.000E+00  0.000E+00  0.000E+00  1.06682E+03  1.364E+00  7.455E+00  6.709E-02  1.682E+00
   1    5    8     3     5    1.0456E+00  1.5790E-01   8.8768E-01  0.000E+00  0.000E+00  0.000E+00  1.06362E+03  1.164E+00  6.655E+00  4.991E-02  1.582E+00
   1    6    8     3     6    8.8768E-01  5.5980E-02   8.3170E-01  0.000E+00  0.000E+00  0.000E+00  1.06158E+03  1.036E+00  6.145E+00  1.844E-02  1.518E+00
   1    5   10     4     1    1.0000E+01  9.0919E-02   9.9091E+00  0.000E+00  0.000E+00  0.000E+00  1.07836E+03  6.368E-01  1.000E+01  2.500E-02  1.212E+00
   1    5    9     4     2    9.9091E+00  1.8158E-01   9.7275E+00  0.000E+00  0.000E+00  0.000E+00  1.07154E+03  6.315E-01  1.000E+01  5.000E-02  1.211E+00
   1    6    8     4     3    9.7275E+00  1.2689E-01   9.6006E+00  0.000E+00  0.000E+00  0.000E+00  1.06381E+03  6.256E-01  1.000E+01  3.500E-02  1.209E+00
   1    6    8     5     1    1.0432E+01  2.2686E-01   1.0205E+01  0.000E+00  0.000E+00  0.000E+00  1.05868E+03  6.790E-01  1.542E+01  6.166E-02  1.226E+00
   1    7    7     5     2    1.0205E+01  2.7894E-01   9.9265E+00  0.000E+00  0.000E+00  0.000E+00  1.05417E+03  6.732E-01  1.519E+01  7.594E-02  1.224E+00
   1    8    7     5     3    9.9265E+00  1.9221E-01   9.7343E+00  0.000E+00  0.000E+00  0.000E+00  1.04992E+03  6.676E-01  1.497E+01  5.241E-02  1.223E+00
   1    8    6     5     4    9.7343E+00  1.3577E-01   9.5985E+00  0.000E+00  0.000E+00  0.000E+00  1.04691E+03  6.637E-01  1.482E+01  3.706E-02  1.221E+00
   1    9    6     6     1    2.0405E+01  2.4462E-01   2.0161E+01  0.000E+00  0.000E+00  0.000E+00  1.04380E+03  1.077E+00  1.200E+01  6.000E-02  1.359E+00
   1   10    7     6     2    2.0161E+01  2.4416E-01   1.9916E+01  0.000E+00  0.000E+00  0.000E+00  1.03925E+03  1.069E+00  1.200E+01  6.000E-02  1.356E+00
   1   11    7     6     3    1.9916E+01  2.4369E-01   1.9673E+01  0.000E+00  0.000E+00  0.000E+00  1.03470E+03  1.061E+00  1.200E+01  6.000E-02  1.354E+00
   1   12    7     6     4    1.9673E+01  2.4322E-01   1.9429E+01  0.000E+00  0.000E+00  0.000E+00  1.03014E+03  1.054E+00  1.200E+01  6.000E-02  1.351E+00
   1   13    7     6     5    1.9429E+01 -4.5433E-02   1.9475E+01  0.000E+00  0.000E+00  0.000E+00  1.02696E+03  1.050E+00  1.200E+01  2.400E-01 -6.310E-02
   1   14    9     7     1    1.5000E+02  1.3328E+00   1.4867E+02  0.000E+00  0.000E+00  0.000E+00  1.03987E+03  2.288E+00  5.529E+01  5.593E-01  7.943E-01
   1   13    8     7     2    1.4867E+02  1.8115E+00   1.4686E+02  0.000E+00  0.000E+00  0.000E+00  1.03478E+03  2.279E+00  5.526E+01  6.148E-01  9.822E-01
   1   13    7     7     3    1.4686E+02  1.4192E+00   1.4544E+02  0.000E+00  0.000E+00  0.000E+00  1.02969E+03  2.271E+00  5.522E+01  5.585E-01  8.471E-01
   1   13    6     8     1    1.6491E+02  8.3688E-01   1.6407E+02  0.000E+00  0.000E+00  0.000E+00  1.02479E+03  2.916E+00  4.228E+01  4.309E-01  6.474E-01
   1   13    5     8     2    1.6407E+02  9.7871E-02   1.6398E+02  0.000E+00  0.000E+00  0.000E+00  1.01854E+03  2.913E+00  4.224E+01  4.304E-01  7.580E-02
   1   13    4     8     3    1.6398E+02 -2.7012E+00   1.6668E+02  0.000E+00  0.000E+00  0.000E+00  1.01230E+03  2.922E+00  4.236E+01  4.317E+00 -2.086E-01
   1   13    3     8     4    1.6668E+02 -3.7673E+00   1.7045E+02  0.000E+00  0.000E+00  0.000E+00  1.00607E+03  2.943E+00  4.267E+01  4.348E+00 -2.888E-01
   1   13    2     8     5    1.7045E+02 -2.6041E+00   1.7305E+02  0.000E+00  0.000E+00  0.000E+00  9.99839E+02  2.964E+00  4.297E+01  4.379E+00 -1.982E-01
   1   13    1     8     6    1.7305E+02 -1.9881E+00   1.7504E+02  0.000E+00  0.000E+00  0.000E+00  9.94853E+02  2.978E+00  4.319E+01  2.640E+00 -2.510E-01
   1    8    6     9     1    0.0000E+00  0.0000E+00   0.0000E+00  0.000E+00  0.000E+00  0.000E+00  1.07875E+03  0.000E+00  4.000E+00  0.000E+00  1.000E+00
   1    8    5     9     2    0.0000E+00  0.0000E+00   0.0000E+00  0.000E+00  0.000E+00  0.000E+00  1.07825E+03  0.000E+00  4.000E+00  0.000E+00  1.000E+00





UNSATURATED ZONE PACKAGE VOLUMETRIC BUDGET FOR  TIME STEP    30 STRESS PERIOD   25
  ------------------------------------------------------------------------------



     CUMULATIVE VOLUMES      L**3       RATES FOR THIS TIME STEP      L**3/T
     ------------------                 ------------------------

           IN:                                      IN:
           ---                                      ---
        INFILTRATION =   279123433.0549          INFILTRATION =           4.4075

          OUT:                                     OUT:
          ----                                     ----
              UZF ET =   202208785.0724                UZF ET =           0.7250
        UZF RECHARGE =      674797.3606          UZF RECHARGE =       0.0000E+00

            IN - OUT =    76239850.6219              IN - OUT =           3.6825

          STORAGE:                                 STORAGE:
          --------                                 --------
      STORAGE CHANGE =    76240496.9357        STORAGE CHANGE =           3.6825

 PERCENT DISCREPANCY IS DIFFERENCE BETWEEN IN-OUT MINUS CHANGE IN STORAGE
 DIVIDED BY THE AVERAGE OF IN AND OUT TIMES 100

 PERCENT DISCREPANCY =          -0.00     PERCENT DISCREPANCY =           0.00






1
  VOLUMETRIC BUDGET FOR ENTIRE MODEL AT END OF TIME STEP   30, STRESS PERIOD  25
  ------------------------------------------------------------------------------

     CUMULATIVE VOLUMES      L**3       RATES FOR THIS TIME STEP      L**3/T
     ------------------                 ------------------------

           IN:                                      IN:
           ---                                      ---
               AG WELLS  =           0.0000                 AG WELLS  =           0.0000
        DIVERSION SEGMEN =      848802.5000          DIVERSION SEGMEN =           0.0000
    TS         GW IRRIGA =           0.0000      TS         GW IRRIGA =           0.0000
    TION         SW IRRI =           0.0000      TION         SW IRRI =           0.0000
    GATION      SYSTEM L =           0.0000      GATION      SYSTEM L =           0.0000
    OSSES GW      SYSTEM =           0.1856      OSSES GW      SYSTEM =           0.0000

                TOTAL IN =      848802.6875                  TOTAL IN =           0.0000

          OUT:                                     OUT:
          ----                                     ----
               AG WELLS  =           0.0000                 AG WELLS  =           0.0000
        DIVERSION SEGMEN =           0.0000          DIVERSION SEGMEN =           0.0000
    TS         GW IRRIGA =           0.0000      TS         GW IRRIGA =           0.0000
    TION         SW IRRI =      848819.6875      TION         SW IRRI =           0.0000
    GATION      SYSTEM L =           0.0000      GATION      SYSTEM L =           0.0000
    OSSES GW      SYSTEM =           0.0000      OSSES GW      SYSTEM =           0.0000

               TOTAL OUT =      848819.6875                 TOTAL OUT =           0.0000

                IN - OUT =         -17.0000                  IN - OUT =           0.0000

     PERCENT DISCREPANCY =          -0.00         PERCENT DISCREPANCY =           0.00



1
  VOLUMETRIC BUDGET FOR ENTIRE MODEL AT END OF TIME STEP   30, STRESS PERIOD  25
  ------------------------------------------------------------------------------

     CUMULATIVE VOLUMES      L**3       RATES FOR THIS TIME STEP      L**3/T
     ------------------                 ------------------------

           IN:                                      IN:
           ---                                      ---
             STORAGE     =    34959336.0000               STORAGE     =           0.4149
       CONSTANT HEAD     =           0.0000         CONSTANT HEAD     =           0.0000
     HEAD DEP BOUNDS     =    18055510.0000       HEAD DEP BOUNDS     =           0.2856
      STREAM LEAKAGE     =   752253504.0000        STREAM LEAKAGE     =          11.0113
        UZF RECHARGE     =      674797.2500          UZF RECHARGE     =           0.0000
               GW ET     =           0.0000                 GW ET     =           0.0000
     SURFACE LEAKAGE     =           0.0000       SURFACE LEAKAGE     =           0.0000
           AG WELLS      =           0.0000             AG WELLS      =           0.0000

                TOTAL IN =   805943168.0000                  TOTAL IN =          11.7117

          OUT:                                     OUT:
          ----                                     ----
             STORAGE     =    97367512.0000               STORAGE     =           0.3166
       CONSTANT HEAD     =           0.0000         CONSTANT HEAD     =           0.0000
     HEAD DEP BOUNDS     =    18470782.0000       HEAD DEP BOUNDS     =           0.2890
      STREAM LEAKAGE     =   680627776.0000        STREAM LEAKAGE     =          11.1060
        UZF RECHARGE     =           0.0000          UZF RECHARGE     =           0.0000
               GW ET     =     9490485.0000                 GW ET     =           0.0000
     SURFACE LEAKAGE     =           0.0000       SURFACE LEAKAGE     =           0.0000
           AG WELLS      =           0.0000             AG WELLS      =           0.0000

               TOTAL OUT =   805956544.0000                 TOTAL OUT =          11.7117

                IN - OUT =      -13376.0000                  IN - OUT =       3.2425E-05

     PERCENT DISCREPANCY =          -0.00         PERCENT DISCREPANCY =           0.00






         TIME SUMMARY AT END OF TIME STEP   30 IN STRESS PERIOD   25
                    SECONDS     MINUTES      HOURS       DAYS        YEARS
                    -----------------------------------------------------------
   TIME STEP LENGTH  87667.      1461.1      24.352      1.0147     2.77799E-03
 STRESS PERIOD TIME 2.63000E+06  43833.      730.56      30.440     8.33397E-02
         TOTAL TIME 6.32067E+07 1.05345E+06  17557.      731.56      2.0029    
1
1
                            STRESS PERIOD NO.   26, LENGTH =   2630000.    
                            -----------------------------------------------

                              NUMBER OF TIME STEPS =    30

                               MULTIPLIER FOR DELT =     1.000

                            INITIAL TIME STEP SIZE =   87666.66    

 REUSING NON-PARAMETER GHB CELLS FROM LAST STRESS PERIOD

      2 GHB CELLS

 REUSING STREAM SEGMENT DATA FROM LAST STRESS PERIOD



            AREAL INFILTRATION RATE
 READING ON UNIT   19 WITH FORMAT: (10F4.0)            

            1           2           3           4           5           6           7           8           9          10
 ........................................................................................................................
   1   1.2000E-09   0.000       0.000       0.000       0.000       0.000       0.000       0.000       0.000       0.000    
   2   2.1000E-09  2.0000E-09  8.0000E-10  8.5000E-09   0.000       0.000       0.000       0.000       0.000       0.000    
   3   5.0000E-10  1.1000E-09  8.8000E-09  5.5000E-09   0.000       0.000       0.000       0.000       0.000       0.000    
   4   8.5000E-09  1.1000E-09  1.1000E-09  1.1000E-09  2.0000E-09   0.000       0.000       0.000       0.000       0.000    
   5   8.5000E-09  1.1000E-09  1.1000E-09  1.1000E-09  1.1000E-09   0.000       0.000       0.000       0.000       0.000    
   6   8.5000E-09  5.2000E-09  2.1000E-09  1.1000E-09  1.5000E-09   0.000       0.000       0.000       0.000       0.000    
   7   8.5000E-09  5.2000E-09  2.1000E-09  1.2000E-09  2.0000E-09   0.000       0.000       0.000       0.000       0.000    
   8   5.0000E-10  5.2000E-09  2.1000E-09  1.2000E-09  5.0000E-09   0.000       0.000       0.000       0.000       0.000    
   9   5.0000E-10  5.2000E-09  2.1000E-09  1.2000E-09  5.0000E-09   0.000       0.000       0.000       0.000       0.000    
  10   5.0000E-10  5.2000E-09  2.1000E-09  1.2000E-09  5.8000E-09   0.000       0.000       0.000       0.000       0.000    
  11   1.0000E-10  1.1000E-09  1.1000E-09  1.2000E-09  5.0000E-09   0.000       0.000       0.000       0.000       0.000    
  12   1.1000E-09  1.1000E-09  1.1000E-09  1.1000E-09  2.0000E-09   0.000       0.000       0.000       0.000       0.000    
  13   1.1000E-09  2.2000E-09  2.2000E-09  2.1000E-09  1.0000E-09   0.000       0.000       0.000       0.000       0.000    
  14   2.0000E-10  5.5000E-09  5.5000E-09  5.2000E-09  1.0000E-09   0.000       0.000       0.000       0.000       0.000    
  15    0.000      8.8000E-09  8.8000E-09   0.000       0.000       0.000       0.000       0.000       0.000       0.000    

                  ET RATE =  5.000000E-10

 USING ET EXTINCTION DEPTH FROM PREVIOUS STRESS PERIOD. CURRENT PERIOD IS:      26

 USING EXTINCTION WATER CONTENT FROM PREVIOUS STRESS PERIOD. CURRENT PERIOD IS:      26

 USING AIR ENTRY PRESSURE FROM PREVIOUS STRESS PERIOD. CURRENT PERIOD IS:      26

 USING ROOT PRESSURE HEAD FROM PREVIOUS STRESS PERIOD. CURRENT PERIOD IS:      26

 USING ROOT ACTIVITY FROM PREVIOUS STRESS PERIOD. CURRENT PERIOD IS:      26

 PROCESSING AG STRESS PERIOD DATA

 READING AG STRESS PERIOD DATA

 READING IRRIGATION SEGMENT

 READING IRRIGATION WELL

 READING SUPPLEMENTAL WELL

 END PROCESSING AG STRESS PERIOD DATA OPTIONS
 
 SOLVING FOR HEAD 
                                                   Max.-Head-Change                         Max.-Flux-Residual
  Residual-Control   Outer-Iter.   Inner-Iter.     Column Row Layer    Maximum-Head-Change  Column Row Layer    Maximum-Flux-Residual          L2-NORM 
          0                 1           2             2    1     1       0.1451641069E-02       2    1    1         0.7545837897E-01      0.1204311916E+00
          0                 2           2             2    1     1      -0.1412051969E-03       2    1    1        -0.7545844888E-02      0.1201083652E-01
          0                 3           1             2    1     1       0.9615549850E-05       2    1    1         0.5282092968E-03      0.8376510577E-03

    ------------------------------------------------
       NWT REQUIRED            3 OUTER ITERATIONS 
       AND A TOTAL OF          5 INNER ITERATIONS.
    ------------------------------------------------

 NO OUTPUT CONTROL FOR STRESS PERIOD   26   TIME STEP    1
 
 SOLVING FOR HEAD 
                                                   Max.-Head-Change                         Max.-Flux-Residual
  Residual-Control   Outer-Iter.   Inner-Iter.     Column Row Layer    Maximum-Head-Change  Column Row Layer    Maximum-Flux-Residual          L2-NORM 
          0                 1           2             2    1     1       0.1449054925E-02       2    1    1         0.7527885774E-01      0.1159721378E+00
          0                 2           2             2    1     1      -0.1409536191E-03       2    1    1        -0.7527891697E-02      0.1155661339E-01
          0                 3           1             2    1     1       0.9598419202E-05       2    1    1         0.5269525897E-03      0.8053402763E-03

    ------------------------------------------------
       NWT REQUIRED            3 OUTER ITERATIONS 
       AND A TOTAL OF          5 INNER ITERATIONS.
    ------------------------------------------------

 NO OUTPUT CONTROL FOR STRESS PERIOD   26   TIME STEP    2
 
 SOLVING FOR HEAD 
                                                   Max.-Head-Change                         Max.-Flux-Residual
  Residual-Control   Outer-Iter.   Inner-Iter.     Column Row Layer    Maximum-Head-Change  Column Row Layer    Maximum-Flux-Residual          L2-NORM 
          0                 1           2             2    1     1       0.1446537007E-02       2    1    1         0.7514478234E-01      0.1163125972E+00
          0                 2           2             2    1     1      -0.1407086929E-03       2    1    1        -0.7514484057E-02      0.1158744712E-01
          0                 3           1             2    1     1       0.9581740837E-05       2    1    1         0.5260140538E-03      0.8070533064E-03

    ------------------------------------------------
       NWT REQUIRED            3 OUTER ITERATIONS 
       AND A TOTAL OF          5 INNER ITERATIONS.
    ------------------------------------------------

 NO OUTPUT CONTROL FOR STRESS PERIOD   26   TIME STEP    3
 
 SOLVING FOR HEAD 
                                                   Max.-Head-Change                         Max.-Flux-Residual
  Residual-Control   Outer-Iter.   Inner-Iter.     Column Row Layer    Maximum-Head-Change  Column Row Layer    Maximum-Flux-Residual          L2-NORM 
          0                 1           2             2    1     1       0.1444029898E-02       2    1    1         0.7501423169E-01      0.1145651962E+00
          0                 2           2             2    1     1      -0.1404648194E-03       2    1    1        -0.7501428964E-02      0.1141491441E-01
          0                 3           1             2    1     1       0.9565134656E-05       2    1    1         0.5251002128E-03      0.7957782426E-03

    ------------------------------------------------
       NWT REQUIRED            3 OUTER ITERATIONS 
       AND A TOTAL OF          5 INNER ITERATIONS.
    ------------------------------------------------

 NO OUTPUT CONTROL FOR STRESS PERIOD   26   TIME STEP    4
 
 SOLVING FOR HEAD 
                                                   Max.-Head-Change                         Max.-Flux-Residual
  Residual-Control   Outer-Iter.   Inner-Iter.     Column Row Layer    Maximum-Head-Change  Column Row Layer    Maximum-Flux-Residual          L2-NORM 
          0                 1           2             2    1     1       0.1441511780E-02       2    1    1         0.7488311785E-01      0.1130534394E+00
          0                 2           2             2    1     1      -0.1402198745E-03       2    1    1        -0.7488317544E-02      0.1127228178E-01
          0                 3           1             2    1     1       0.9548454398E-05       2    1    1         0.5241824088E-03      0.7847238239E-03

    ------------------------------------------------
       NWT REQUIRED            3 OUTER ITERATIONS 
       AND A TOTAL OF          5 INNER ITERATIONS.
    ------------------------------------------------

 NO OUTPUT CONTROL FOR STRESS PERIOD   26   TIME STEP    5
 
 SOLVING FOR HEAD 
                                                   Max.-Head-Change                         Max.-Flux-Residual
  Residual-Control   Outer-Iter.   Inner-Iter.     Column Row Layer    Maximum-Head-Change  Column Row Layer    Maximum-Flux-Residual          L2-NORM 
          0                 1           2             2    1     1       0.1439025862E-02       2    1    1         0.7475367855E-01      0.1117329261E+00
          0                 2           2             2    1     1      -0.1399780624E-03       2    1    1        -0.7475373603E-02      0.1114619910E-01
          0                 3           1             2    1     1       0.9531988091E-05       2    1    1         0.5232763328E-03      0.7779931567E-03

    ------------------------------------------------
       NWT REQUIRED            3 OUTER ITERATIONS 
       AND A TOTAL OF          5 INNER ITERATIONS.
    ------------------------------------------------

 NO OUTPUT CONTROL FOR STRESS PERIOD   26   TIME STEP    6
 
 SOLVING FOR HEAD 
                                                   Max.-Head-Change                         Max.-Flux-Residual
  Residual-Control   Outer-Iter.   Inner-Iter.     Column Row Layer    Maximum-Head-Change  Column Row Layer    Maximum-Flux-Residual          L2-NORM 
          0                 1           2             2    1     1       0.1436550519E-02       2    1    1         0.7462478612E-01      0.1105781745E+00
          0                 2           2             2    1     1      -0.1397372784E-03       2    1    1        -0.7462484328E-02      0.1103473801E-01
          0                 3           1             2    1     1       0.9515591367E-05       2    1    1         0.5223740776E-03      0.7702814420E-03

    ------------------------------------------------
       NWT REQUIRED            3 OUTER ITERATIONS 
       AND A TOTAL OF          5 INNER ITERATIONS.
    ------------------------------------------------

 NO OUTPUT CONTROL FOR STRESS PERIOD   26   TIME STEP    7
 
 SOLVING FOR HEAD 
                                                   Max.-Head-Change                         Max.-Flux-Residual
  Residual-Control   Outer-Iter.   Inner-Iter.     Column Row Layer    Maximum-Head-Change  Column Row Layer    Maximum-Flux-Residual          L2-NORM 
          0                 1           2             2    1     1       0.1434063981E-02       2    1    1         0.7449531922E-01      0.1095666510E+00
          0                 2           2             2    1     1      -0.1394954058E-03       2    1    1        -0.7449537619E-02      0.1093788895E-01
          0                 3           1             2    1     1       0.9499120564E-05       2    1    1         0.5214678066E-03      0.7640341102E-03

    ------------------------------------------------
       NWT REQUIRED            3 OUTER ITERATIONS 
       AND A TOTAL OF          5 INNER ITERATIONS.
    ------------------------------------------------

 NO OUTPUT CONTROL FOR STRESS PERIOD   26   TIME STEP    8
 
 SOLVING FOR HEAD 
                                                   Max.-Head-Change                         Max.-Flux-Residual
  Residual-Control   Outer-Iter.   Inner-Iter.     Column Row Layer    Maximum-Head-Change  Column Row Layer    Maximum-Flux-Residual          L2-NORM 
          0                 1           2             2    1     1       0.1431609435E-02       2    1    1         0.7436751745E-01      0.1086795549E+00
          0                 2           2             2    1     1      -0.1392566448E-03       2    1    1        -0.7436757406E-02      0.1085215301E-01
          0                 3           1             2    1     1       0.9482861820E-05       2    1    1         0.5205731888E-03      0.7583791772E-03

    ------------------------------------------------
       NWT REQUIRED            3 OUTER ITERATIONS 
       AND A TOTAL OF          5 INNER ITERATIONS.
    ------------------------------------------------

 NO OUTPUT CONTROL FOR STRESS PERIOD   26   TIME STEP    9
 
 SOLVING FOR HEAD 
                                                   Max.-Head-Change                         Max.-Flux-Residual
  Residual-Control   Outer-Iter.   Inner-Iter.     Column Row Layer    Maximum-Head-Change  Column Row Layer    Maximum-Flux-Residual          L2-NORM 
          0                 1           2             2    1     1       0.1429165257E-02       2    1    1         0.7424025165E-01      0.1078940286E+00
          0                 2           2             2    1     1      -0.1390188922E-03       2    1    1        -0.7424030794E-02      0.1077611151E-01
          0                 3           1             2    1     1       0.9466671712E-05       2    1    1         0.5196823163E-03      0.7530112975E-03

    ------------------------------------------------
       NWT REQUIRED            3 OUTER ITERATIONS 
       AND A TOTAL OF          5 INNER ITERATIONS.
    ------------------------------------------------

 NO OUTPUT CONTROL FOR STRESS PERIOD   26   TIME STEP   10
 
 SOLVING FOR HEAD 
                                                   Max.-Head-Change                         Max.-Flux-Residual
  Residual-Control   Outer-Iter.   Inner-Iter.     Column Row Layer    Maximum-Head-Change  Column Row Layer    Maximum-Flux-Residual          L2-NORM 
          0                 1           2             2    1     1       0.1426709674E-02       2    1    1         0.7411240045E-01      0.1071987402E+00
          0                 2           2             2    1     1      -0.1387800307E-03       2    1    1        -0.7411245654E-02      0.1070879822E-01
          0                 3           1             2    1     1       0.9450406105E-05       2    1    1         0.5187873579E-03      0.7484601358E-03

    ------------------------------------------------
       NWT REQUIRED            3 OUTER ITERATIONS 
       AND A TOTAL OF          5 INNER ITERATIONS.
    ------------------------------------------------

 NO OUTPUT CONTROL FOR STRESS PERIOD   26   TIME STEP   11
 
 SOLVING FOR HEAD 
                                                   Max.-Head-Change                         Max.-Flux-Residual
  Residual-Control   Outer-Iter.   Inner-Iter.     Column Row Layer    Maximum-Head-Change  Column Row Layer    Maximum-Flux-Residual          L2-NORM 
          0                 1           2             2    1     1       0.1424285980E-02       2    1    1         0.7398620380E-01      0.1065781363E+00
          0                 2           2             2    1     1      -0.1385442714E-03       2    1    1        -0.7398625965E-02      0.1064850801E-01
          0                 3           1             2    1     1       0.9434352083E-05       2    1    1         0.5179040063E-03      0.7445797945E-03

    ------------------------------------------------
       NWT REQUIRED            3 OUTER ITERATIONS 
       AND A TOTAL OF          5 INNER ITERATIONS.
    ------------------------------------------------

 NO OUTPUT CONTROL FOR STRESS PERIOD   26   TIME STEP   12
 
 SOLVING FOR HEAD 
                                                   Max.-Head-Change                         Max.-Flux-Residual
  Residual-Control   Outer-Iter.   Inner-Iter.     Column Row Layer    Maximum-Head-Change  Column Row Layer    Maximum-Flux-Residual          L2-NORM 
          0                 1           2             2    1     1       0.1421872351E-02       2    1    1         0.7386053765E-01      0.1060202908E+00
          0                 2           2             2    1     1      -0.1383094906E-03       2    1    1        -0.7386059320E-02      0.1059412813E-01
          0                 3           1             2    1     1       0.9418364330E-05       2    1    1         0.5170243353E-03      0.7407266779E-03

    ------------------------------------------------
       NWT REQUIRED            3 OUTER ITERATIONS 
       AND A TOTAL OF          5 INNER ITERATIONS.
    ------------------------------------------------

 NO OUTPUT CONTROL FOR STRESS PERIOD   26   TIME STEP   13
 
 SOLVING FOR HEAD 
                                                   Max.-Head-Change                         Max.-Flux-Residual
  Residual-Control   Outer-Iter.   Inner-Iter.     Column Row Layer    Maximum-Head-Change  Column Row Layer    Maximum-Flux-Residual          L2-NORM 
          0                 1           2             2    1     1       0.1419447214E-02       2    1    1         0.7373427028E-01      0.1055197261E+00
          0                 2           2             2    1     1      -0.1380735905E-03       2    1    1        -0.7373432576E-02      0.1054564749E-01
          0                 3           1             2    1     1       0.9402300132E-05       2    1    1         0.5161404402E-03      0.7377339688E-03

    ------------------------------------------------
       NWT REQUIRED            3 OUTER ITERATIONS 
       AND A TOTAL OF          5 INNER ITERATIONS.
    ------------------------------------------------

 NO OUTPUT CONTROL FOR STRESS PERIOD   26   TIME STEP   14
 
 SOLVING FOR HEAD 
                                                   Max.-Head-Change                         Max.-Flux-Residual
  Residual-Control   Outer-Iter.   Inner-Iter.     Column Row Layer    Maximum-Head-Change  Column Row Layer    Maximum-Flux-Residual          L2-NORM 
          0                 1           2             2    1     1       0.1417053670E-02       2    1    1         0.7360965234E-01      0.1050685167E+00
          0                 2           2             2    1     1      -0.1378407636E-03       2    1    1        -0.7360970742E-02      0.1050107465E-01
          0                 3           1             2    1     1       0.9386445626E-05       2    1    1         0.5152681232E-03      0.7345512810E-03

    ------------------------------------------------
       NWT REQUIRED            3 OUTER ITERATIONS 
       AND A TOTAL OF          5 INNER ITERATIONS.
    ------------------------------------------------

 NO OUTPUT CONTROL FOR STRESS PERIOD   26   TIME STEP   15
 
 SOLVING FOR HEAD 
                                                   Max.-Head-Change                         Max.-Flux-Residual
  Residual-Control   Outer-Iter.   Inner-Iter.     Column Row Layer    Maximum-Head-Change  Column Row Layer    Maximum-Flux-Residual          L2-NORM 
          0                 1           2             2    1     1       0.1414648485E-02       2    1    1         0.7348442627E-01      0.1046612763E+00
          0                 2           2             2    1     1      -0.1376068039E-03       2    1    1        -0.7348448091E-02      0.1046183102E-01
          0                 3           1             2    1     1       0.9370513728E-05       2    1    1         0.5143915427E-03      0.7319172702E-03

    ------------------------------------------------
       NWT REQUIRED            3 OUTER ITERATIONS 
       AND A TOTAL OF          5 INNER ITERATIONS.
    ------------------------------------------------

 NO OUTPUT CONTROL FOR STRESS PERIOD   26   TIME STEP   16
 
 SOLVING FOR HEAD 
                                                   Max.-Head-Change                         Max.-Flux-Residual
  Residual-Control   Outer-Iter.   Inner-Iter.     Column Row Layer    Maximum-Head-Change  Column Row Layer    Maximum-Flux-Residual          L2-NORM 
          0                 1           2             2    1     1       0.1412274766E-02       2    1    1         0.7336084295E-01      0.1042780070E+00
          0                 2           2             2    1     1      -0.1373759055E-03       2    1    1        -0.7336089749E-02      0.1042418719E-01
          0                 3           1             2    1     1       0.9354790576E-05       2    1    1         0.5135264478E-03      0.7292791663E-03

    ------------------------------------------------
       NWT REQUIRED            3 OUTER ITERATIONS 
       AND A TOTAL OF          5 INNER ITERATIONS.
    ------------------------------------------------

 NO OUTPUT CONTROL FOR STRESS PERIOD   26   TIME STEP   17
 
 SOLVING FOR HEAD 
                                                   Max.-Head-Change                         Max.-Flux-Residual
  Residual-Control   Outer-Iter.   Inner-Iter.     Column Row Layer    Maximum-Head-Change  Column Row Layer    Maximum-Flux-Residual          L2-NORM 
          0                 1           2             2    1     1       0.1409889276E-02       2    1    1         0.7323664468E-01      0.1039312495E+00
          0                 2           2             2    1     1      -0.1371438623E-03       2    1    1        -0.7323669893E-02      0.1039040068E-01
          0                 3           1             2    1     1       0.9338989322E-05       2    1    1         0.5126570771E-03      0.7271895946E-03

    ------------------------------------------------
       NWT REQUIRED            3 OUTER ITERATIONS 
       AND A TOTAL OF          5 INNER ITERATIONS.
    ------------------------------------------------

 NO OUTPUT CONTROL FOR STRESS PERIOD   26   TIME STEP   18
 
 SOLVING FOR HEAD 
                                                   Max.-Head-Change                         Max.-Flux-Residual
  Residual-Control   Outer-Iter.   Inner-Iter.     Column Row Layer    Maximum-Head-Change  Column Row Layer    Maximum-Flux-Residual          L2-NORM 
          0                 1           2             2    1     1       0.1407535155E-02       2    1    1         0.7311408261E-01      0.1036108270E+00
          0                 2           2             2    1     1      -0.1369148701E-03       2    1    1        -0.7311413659E-02      0.1035862753E-01
          0                 3           1             2    1     1       0.9323395867E-05       2    1    1         0.5117991420E-03      0.7247161931E-03

    ------------------------------------------------
       NWT REQUIRED            3 OUTER ITERATIONS 
       AND A TOTAL OF          5 INNER ITERATIONS.
    ------------------------------------------------

 NO OUTPUT CONTROL FOR STRESS PERIOD   26   TIME STEP   19
 
 SOLVING FOR HEAD 
                                                   Max.-Head-Change                         Max.-Flux-Residual
  Residual-Control   Outer-Iter.   Inner-Iter.     Column Row Layer    Maximum-Head-Change  Column Row Layer    Maximum-Flux-Residual          L2-NORM 
          0                 1           2             2    1     1       0.1405169137E-02       2    1    1         0.7299090043E-01      0.1033114470E+00
          0                 2           2             2    1     1      -0.1366847203E-03       2    1    1        -0.7299095404E-02      0.1032974815E-01
          0                 3           1             2    1     1       0.9307723363E-05       2    1    1         0.5109368522E-03      0.7239800760E-03

    ------------------------------------------------
       NWT REQUIRED            3 OUTER ITERATIONS 
       AND A TOTAL OF          5 INNER ITERATIONS.
    ------------------------------------------------

 NO OUTPUT CONTROL FOR STRESS PERIOD   26   TIME STEP   20
 
 SOLVING FOR HEAD 
                                                   Max.-Head-Change                         Max.-Flux-Residual
  Residual-Control   Outer-Iter.   Inner-Iter.     Column Row Layer    Maximum-Head-Change  Column Row Layer    Maximum-Flux-Residual          L2-NORM 
          0                 1           2             2    1     1       0.1402834435E-02       2    1    1         0.7286934803E-01      0.1030277680E+00
          0                 2           2             2    1     1      -0.1364576173E-03       2    1    1        -0.7286940144E-02      0.1030120111E-01
          0                 3           1             2    1     1       0.9292258894E-05       2    1    1         0.5100859927E-03      0.7209108462E-03

    ------------------------------------------------
       NWT REQUIRED            3 OUTER ITERATIONS 
       AND A TOTAL OF          5 INNER ITERATIONS.
    ------------------------------------------------

 NO OUTPUT CONTROL FOR STRESS PERIOD   26   TIME STEP   21
 
 SOLVING FOR HEAD 
                                                   Max.-Head-Change                         Max.-Flux-Residual
  Residual-Control   Outer-Iter.   Inner-Iter.     Column Row Layer    Maximum-Head-Change  Column Row Layer    Maximum-Flux-Residual          L2-NORM 
          0                 1           2             2    1     1       0.1400487612E-02       2    1    1         0.7274717263E-01      0.1027651365E+00
          0                 2           2             2    1     1      -0.1362293353E-03       2    1    1        -0.7274722601E-02      0.1027530035E-01
          0                 3           1             2    1     1       0.9276713484E-05       2    1    1         0.5092307593E-03      0.7197980398E-03

    ------------------------------------------------
       NWT REQUIRED            3 OUTER ITERATIONS 
       AND A TOTAL OF          5 INNER ITERATIONS.
    ------------------------------------------------

 NO OUTPUT CONTROL FOR STRESS PERIOD   26   TIME STEP   22
 
 SOLVING FOR HEAD 
                                                   Max.-Head-Change                         Max.-Flux-Residual
  Residual-Control   Outer-Iter.   Inner-Iter.     Column Row Layer    Maximum-Head-Change  Column Row Layer    Maximum-Flux-Residual          L2-NORM 
          0                 1           2             2    1     1       0.1398171985E-02       2    1    1         0.7262661554E-01      0.1025134910E+00
          0                 2           2             2    1     1      -0.1360040873E-03       2    1    1        -0.7262666854E-02      0.1025037064E-01
          0                 3           1             2    1     1       0.9261374926E-05       2    1    1         0.5083868579E-03      0.7174130057E-03

    ------------------------------------------------
       NWT REQUIRED            3 OUTER ITERATIONS 
       AND A TOTAL OF          5 INNER ITERATIONS.
    ------------------------------------------------

 NO OUTPUT CONTROL FOR STRESS PERIOD   26   TIME STEP   23
 
 SOLVING FOR HEAD 
                                                   Max.-Head-Change                         Max.-Flux-Residual
  Residual-Control   Outer-Iter.   Inner-Iter.     Column Row Layer    Maximum-Head-Change  Column Row Layer    Maximum-Flux-Residual          L2-NORM 
          0                 1           2             2    1     1       0.1395844113E-02       2    1    1         0.7250542905E-01      0.1022755173E+00
          0                 2           2             2    1     1      -0.1357776487E-03       2    1    1        -0.7250548192E-02      0.1022674512E-01
          0                 3           1             2    1     1       0.9245954952E-05       2    1    1         0.5075385443E-03      0.7158059856E-03

    ------------------------------------------------
       NWT REQUIRED            3 OUTER ITERATIONS 
       AND A TOTAL OF          5 INNER ITERATIONS.
    ------------------------------------------------

 NO OUTPUT CONTROL FOR STRESS PERIOD   26   TIME STEP   24
 
 SOLVING FOR HEAD 
                                                   Max.-Head-Change                         Max.-Flux-Residual
  Residual-Control   Outer-Iter.   Inner-Iter.     Column Row Layer    Maximum-Head-Change  Column Row Layer    Maximum-Flux-Residual          L2-NORM 
          0                 1           2             2    1     1       0.1393547321E-02       2    1    1         0.7238585469E-01      0.1020490167E+00
          0                 2           2             2    1     1      -0.1355542330E-03       2    1    1        -0.7238590742E-02      0.1020423474E-01
          0                 3           1             2    1     1       0.9230741121E-05       2    1    1         0.5067015056E-03      0.7141658315E-03

    ------------------------------------------------
       NWT REQUIRED            3 OUTER ITERATIONS 
       AND A TOTAL OF          5 INNER ITERATIONS.
    ------------------------------------------------

 NO OUTPUT CONTROL FOR STRESS PERIOD   26   TIME STEP   25
 
 SOLVING FOR HEAD 
                                                   Max.-Head-Change                         Max.-Flux-Residual
  Residual-Control   Outer-Iter.   Inner-Iter.     Column Row Layer    Maximum-Head-Change  Column Row Layer    Maximum-Flux-Residual          L2-NORM 
          0                 1           2             2    1     1       0.1391238262E-02       2    1    1         0.7226564464E-01      0.1018325256E+00
          0                 2           2             2    1     1      -0.1353296244E-03       2    1    1        -0.7226569715E-02      0.1018281681E-01
          0                 3           1             2    1     1       0.9215446111E-05       2    1    1         0.5058600439E-03      0.7127963296E-03

    ------------------------------------------------
       NWT REQUIRED            3 OUTER ITERATIONS 
       AND A TOTAL OF          5 INNER ITERATIONS.
    ------------------------------------------------

 NO OUTPUT CONTROL FOR STRESS PERIOD   26   TIME STEP   26
 
 SOLVING FOR HEAD 
                                                   Max.-Head-Change                         Max.-Flux-Residual
  Residual-Control   Outer-Iter.   Inner-Iter.     Column Row Layer    Maximum-Head-Change  Column Row Layer    Maximum-Flux-Residual          L2-NORM 
          0                 1           2             2    1     1       0.1388938549E-02       2    1    1         0.7214592217E-01      0.1016221856E+00
          0                 2           2             2    1     1      -0.1351059242E-03       2    1    1        -0.7214597426E-02      0.1016179629E-01
          0                 3           1             2    1     1       0.9200213109E-05       2    1    1         0.5050219907E-03      0.7112853737E-03

    ------------------------------------------------
       NWT REQUIRED            3 OUTER ITERATIONS 
       AND A TOTAL OF          5 INNER ITERATIONS.
    ------------------------------------------------

 NO OUTPUT CONTROL FOR STRESS PERIOD   26   TIME STEP   27
 
 SOLVING FOR HEAD 
                                                   Max.-Head-Change                         Max.-Flux-Residual
  Residual-Control   Outer-Iter.   Inner-Iter.     Column Row Layer    Maximum-Head-Change  Column Row Layer    Maximum-Flux-Residual          L2-NORM 
          0                 1           2             2    1     1       0.1386669641E-02       2    1    1         0.7202780793E-01      0.1014213321E+00
          0                 2           2             2    1     1      -0.1348852212E-03       2    1    1        -0.7202785983E-02      0.1014190233E-01
          0                 3           1             2    1     1       0.9185183883E-05       2    1    1         0.5041951798E-03      0.7099292095E-03

    ------------------------------------------------
       NWT REQUIRED            3 OUTER ITERATIONS 
       AND A TOTAL OF          5 INNER ITERATIONS.
    ------------------------------------------------

 NO OUTPUT CONTROL FOR STRESS PERIOD   26   TIME STEP   28
 
 SOLVING FOR HEAD 
                                                   Max.-Head-Change                         Max.-Flux-Residual
  Residual-Control   Outer-Iter.   Inner-Iter.     Column Row Layer    Maximum-Head-Change  Column Row Layer    Maximum-Flux-Residual          L2-NORM 
          0                 1           2             2    1     1       0.1384388320E-02       2    1    1         0.7190904359E-01      0.1012273929E+00
          0                 2           2             2    1     1      -0.1346633100E-03       2    1    1        -0.7190909508E-02      0.1012252166E-01
          0                 3           1             2    1     1       0.9170072294E-05       2    1    1         0.5033638254E-03      0.7085135109E-03

    ------------------------------------------------
       NWT REQUIRED            3 OUTER ITERATIONS 
       AND A TOTAL OF          5 INNER ITERATIONS.
    ------------------------------------------------

 NO OUTPUT CONTROL FOR STRESS PERIOD   26   TIME STEP   29
 
 SOLVING FOR HEAD 
                                                   Max.-Head-Change                         Max.-Flux-Residual
  Residual-Control   Outer-Iter.   Inner-Iter.     Column Row Layer    Maximum-Head-Change  Column Row Layer    Maximum-Flux-Residual          L2-NORM 
          0                 1           2             2    1     1       0.1382116172E-02       2    1    1         0.7179075929E-01      0.1010353746E+00
          0                 2           2             2    1     1      -0.1344422918E-03       2    1    1        -0.7179081059E-02      0.1010353293E-01
          0                 3           1             2    1     1       0.9155022241E-05       2    1    1         0.5025358508E-03      0.7072796936E-03

    ------------------------------------------------
       NWT REQUIRED            3 OUTER ITERATIONS 
       AND A TOTAL OF          5 INNER ITERATIONS.
    ------------------------------------------------

 NO OUTPUT CONTROL FOR STRESS PERIOD   26   TIME STEP   30



 STREAM LISTING     PERIOD     26   STEP       30

 LAYER ROW COL. STREAM  RCH.  FLOW INTO     FLOW TO   FLOW OUT OF   OVRLND.     DIRECT     STREAM       STREAM     STREAM     STREAM   STREAMBED  STREAMBED
                SEG.NO.  NO.  STRM. RCH.    AQUIFER    STRM. RCH.    RUNOFF     PRECIP       ET          HEAD       DEPTH      WIDTH   CONDCTNC.   GRADIENT

   1    1    1     1     1    1.6500E+01  1.9759E-01   1.6303E+01  0.000E+00  0.000E+00  0.000E+00  1.09409E+03  1.039E+00  1.087E+01  4.893E-02  1.346E+00
   1    2    2     1     2    1.6303E+01  3.0466E-01   1.5998E+01  0.000E+00  0.000E+00  0.000E+00  1.08909E+03  1.034E+00  1.079E+01  7.552E-02  1.345E+00
   1    3    3     1     3    1.5998E+01  2.5853E-01   1.5739E+01  0.000E+00  0.000E+00  0.000E+00  1.08345E+03  1.029E+00  1.070E+01  6.417E-02  1.343E+00
   1    3    4     1     4    1.5739E+01  2.3700E-01   1.5502E+01  0.000E+00  0.000E+00  0.000E+00  1.07843E+03  1.024E+00  1.061E+01  5.890E-02  1.341E+00
   1    4    5     2     1    1.3502E+01  2.9865E-01   1.3204E+01  0.000E+00  0.000E+00  0.000E+00  1.07276E+03  8.289E-01  1.200E+01  7.800E-02  1.276E+00
   1    5    6     2     2    1.3204E+01  2.2914E-01   1.2975E+01  0.000E+00  0.000E+00  0.000E+00  1.06733E+03  8.190E-01  1.200E+01  6.000E-02  1.273E+00
   1    6    6     2     3    1.2975E+01  2.2862E-01   1.2746E+01  0.000E+00  0.000E+00  0.000E+00  1.06260E+03  8.104E-01  1.200E+01  6.000E-02  1.270E+00
   1    7    6     2     4    1.2746E+01  2.2810E-01   1.2518E+01  0.000E+00  0.000E+00  0.000E+00  1.05788E+03  8.017E-01  1.200E+01  6.000E-02  1.267E+00
   1    8    6     2     5    1.2518E+01  2.2758E-01   1.2290E+01  0.000E+00  0.000E+00  0.000E+00  1.05315E+03  7.930E-01  1.200E+01  6.000E-02  1.264E+00
   1    3    5     3     1    2.0000E+00  2.8252E-01   1.7175E+00  0.000E+00  0.000E+00  0.000E+00  1.07555E+03  1.909E+00  9.636E+00  7.227E-02  1.955E+00
   1    3    6     3     2    1.7175E+00  2.4905E-01   1.4684E+00  0.000E+00  0.000E+00  0.000E+00  1.07264E+03  1.727E+00  8.909E+00  6.682E-02  1.864E+00
   1    3    7     3     3    1.4684E+00  1.9718E-01   1.2712E+00  0.000E+00  0.000E+00  0.000E+00  1.06987E+03  1.555E+00  8.218E+00  5.547E-02  1.777E+00
   1    4    8     3     4    1.2712E+00  2.2567E-01   1.0456E+00  0.000E+00  0.000E+00  0.000E+00  1.06682E+03  1.364E+00  7.455E+00  6.709E-02  1.682E+00
   1    5    8     3     5    1.0456E+00  1.5790E-01   8.8768E-01  0.000E+00  0.000E+00  0.000E+00  1.06362E+03  1.164E+00  6.655E+00  4.991E-02  1.582E+00
   1    6    8     3     6    8.8768E-01  5.5980E-02   8.3170E-01  0.000E+00  0.000E+00  0.000E+00  1.06158E+03  1.036E+00  6.145E+00  1.844E-02  1.518E+00
   1    5   10     4     1    1.0000E+01  9.0919E-02   9.9091E+00  0.000E+00  0.000E+00  0.000E+00  1.07836E+03  6.368E-01  1.000E+01  2.500E-02  1.212E+00
   1    5    9     4     2    9.9091E+00  1.8158E-01   9.7275E+00  0.000E+00  0.000E+00  0.000E+00  1.07154E+03  6.315E-01  1.000E+01  5.000E-02  1.211E+00
   1    6    8     4     3    9.7275E+00  1.2689E-01   9.6006E+00  0.000E+00  0.000E+00  0.000E+00  1.06381E+03  6.256E-01  1.000E+01  3.500E-02  1.209E+00
   1    6    8     5     1    1.0432E+01  2.2686E-01   1.0205E+01  0.000E+00  0.000E+00  0.000E+00  1.05868E+03  6.790E-01  1.542E+01  6.166E-02  1.226E+00
   1    7    7     5     2    1.0205E+01  2.7894E-01   9.9265E+00  0.000E+00  0.000E+00  0.000E+00  1.05417E+03  6.732E-01  1.519E+01  7.594E-02  1.224E+00
   1    8    7     5     3    9.9265E+00  1.9221E-01   9.7343E+00  0.000E+00  0.000E+00  0.000E+00  1.04992E+03  6.676E-01  1.497E+01  5.241E-02  1.223E+00
   1    8    6     5     4    9.7343E+00  1.3577E-01   9.5985E+00  0.000E+00  0.000E+00  0.000E+00  1.04691E+03  6.637E-01  1.482E+01  3.706E-02  1.221E+00
   1    9    6     6     1    2.1889E+01  2.4742E-01   2.1641E+01  0.000E+00  0.000E+00  0.000E+00  1.04385E+03  1.124E+00  1.200E+01  6.000E-02  1.375E+00
   1   10    7     6     2    2.1641E+01  2.4696E-01   2.1395E+01  0.000E+00  0.000E+00  0.000E+00  1.03930E+03  1.116E+00  1.200E+01  6.000E-02  1.372E+00
   1   11    7     6     3    2.1395E+01  2.4650E-01   2.1148E+01  0.000E+00  0.000E+00  0.000E+00  1.03474E+03  1.108E+00  1.200E+01  6.000E-02  1.369E+00
   1   12    7     6     4    2.1148E+01  2.4603E-01   2.0902E+01  0.000E+00  0.000E+00  0.000E+00  1.03019E+03  1.101E+00  1.200E+01  6.000E-02  1.367E+00
   1   13    7     6     5    2.0902E+01 -3.3775E-02   2.0936E+01  0.000E+00  0.000E+00  0.000E+00  1.02701E+03  1.097E+00  1.200E+01  2.400E-01 -4.691E-02
   1   14    9     7     1    1.5000E+02  1.3329E+00   1.4867E+02  0.000E+00  0.000E+00  0.000E+00  1.03987E+03  2.288E+00  5.529E+01  5.593E-01  7.944E-01
   1   13    8     7     2    1.4867E+02  1.8128E+00   1.4685E+02  0.000E+00  0.000E+00  0.000E+00  1.03478E+03  2.279E+00  5.526E+01  6.148E-01  9.829E-01
   1   13    7     7     3    1.4685E+02  1.4202E+00   1.4543E+02  0.000E+00  0.000E+00  0.000E+00  1.02969E+03  2.271E+00  5.522E+01  5.585E-01  8.477E-01
   1   13    6     8     1    1.6637E+02  8.4562E-01   1.6552E+02  0.000E+00  0.000E+00  0.000E+00  1.02480E+03  2.926E+00  4.242E+01  4.323E-01  6.521E-01
   1   13    5     8     2    1.6552E+02  1.0380E-01   1.6542E+02  0.000E+00  0.000E+00  0.000E+00  1.01855E+03  2.922E+00  4.238E+01  4.318E-01  8.013E-02
   1   13    4     8     3    1.6542E+02 -2.6840E+00   1.6810E+02  0.000E+00  0.000E+00  0.000E+00  1.01231E+03  2.931E+00  4.250E+01  4.331E+00 -2.066E-01
   1   13    3     8     4    1.6810E+02 -3.7559E+00   1.7186E+02  0.000E+00  0.000E+00  0.000E+00  1.00608E+03  2.952E+00  4.281E+01  4.362E+00 -2.870E-01
   1   13    2     8     5    1.7186E+02 -2.5946E+00   1.7445E+02  0.000E+00  0.000E+00  0.000E+00  9.99848E+02  2.973E+00  4.310E+01  4.392E+00 -1.969E-01
   1   13    1     8     6    1.7445E+02 -1.9797E+00   1.7643E+02  0.000E+00  0.000E+00  0.000E+00  9.94862E+02  2.987E+00  4.332E+01  2.648E+00 -2.492E-01
   1    8    6     9     1    0.0000E+00  0.0000E+00   0.0000E+00  0.000E+00  0.000E+00  0.000E+00  1.07875E+03  0.000E+00  4.000E+00  0.000E+00  1.000E+00
   1    8    5     9     2    0.0000E+00  0.0000E+00   0.0000E+00  0.000E+00  0.000E+00  0.000E+00  1.07825E+03  0.000E+00  4.000E+00  0.000E+00  1.000E+00





UNSATURATED ZONE PACKAGE VOLUMETRIC BUDGET FOR  TIME STEP    30 STRESS PERIOD   26
  ------------------------------------------------------------------------------



     CUMULATIVE VOLUMES      L**3       RATES FOR THIS TIME STEP      L**3/T
     ------------------                 ------------------------

           IN:                                      IN:
           ---                                      ---
        INFILTRATION =   290715157.6130          INFILTRATION =           4.4075

          OUT:                                     OUT:
          ----                                     ----
              UZF ET =   204115550.3145                UZF ET =           0.7250
        UZF RECHARGE =      674797.3606          UZF RECHARGE =       0.0000E+00

            IN - OUT =    85924809.9380              IN - OUT =           3.6825

          STORAGE:                                 STORAGE:
          --------                                 --------
      STORAGE CHANGE =    85925456.1828        STORAGE CHANGE =           3.6825

 PERCENT DISCREPANCY IS DIFFERENCE BETWEEN IN-OUT MINUS CHANGE IN STORAGE
 DIVIDED BY THE AVERAGE OF IN AND OUT TIMES 100

 PERCENT DISCREPANCY =          -0.00     PERCENT DISCREPANCY =           0.00






1
  VOLUMETRIC BUDGET FOR ENTIRE MODEL AT END OF TIME STEP   30, STRESS PERIOD  26
  ------------------------------------------------------------------------------

     CUMULATIVE VOLUMES      L**3       RATES FOR THIS TIME STEP      L**3/T
     ------------------                 ------------------------

           IN:                                      IN:
           ---                                      ---
               AG WELLS  =           0.0000                 AG WELLS  =           0.0000
        DIVERSION SEGMEN =      848802.5000          DIVERSION SEGMEN =           0.0000
    TS         GW IRRIGA =           0.0000      TS         GW IRRIGA =           0.0000
    TION         SW IRRI =           0.0000      TION         SW IRRI =           0.0000
    GATION      SYSTEM L =           0.0000      GATION      SYSTEM L =           0.0000
    OSSES GW      SYSTEM =           0.1856      OSSES GW      SYSTEM =           0.0000

                TOTAL IN =      848802.6875                  TOTAL IN =           0.0000

          OUT:                                     OUT:
          ----                                     ----
               AG WELLS  =           0.0000                 AG WELLS  =           0.0000
        DIVERSION SEGMEN =           0.0000          DIVERSION SEGMEN =           0.0000
    TS         GW IRRIGA =           0.0000      TS         GW IRRIGA =           0.0000
    TION         SW IRRI =      848819.6875      TION         SW IRRI =           0.0000
    GATION      SYSTEM L =           0.0000      GATION      SYSTEM L =           0.0000
    OSSES GW      SYSTEM =           0.0000      OSSES GW      SYSTEM =           0.0000

               TOTAL OUT =      848819.6875                 TOTAL OUT =           0.0000

                IN - OUT =         -17.0000                  IN - OUT =           0.0000

     PERCENT DISCREPANCY =          -0.00         PERCENT DISCREPANCY =           0.00



1
  VOLUMETRIC BUDGET FOR ENTIRE MODEL AT END OF TIME STEP   30, STRESS PERIOD  26
  ------------------------------------------------------------------------------

     CUMULATIVE VOLUMES      L**3       RATES FOR THIS TIME STEP      L**3/T
     ------------------                 ------------------------

           IN:                                      IN:
           ---                                      ---
             STORAGE     =    35744408.0000               STORAGE     =           0.2727
       CONSTANT HEAD     =           0.0000         CONSTANT HEAD     =           0.0000
     HEAD DEP BOUNDS     =    18806530.0000       HEAD DEP BOUNDS     =           0.2856
      STREAM LEAKAGE     =   781462528.0000        STREAM LEAKAGE     =          11.1136
        UZF RECHARGE     =      674797.2500          UZF RECHARGE     =           0.0000
               GW ET     =           0.0000                 GW ET     =           0.0000
     SURFACE LEAKAGE     =           0.0000       SURFACE LEAKAGE     =           0.0000
           AG WELLS      =           0.0000             AG WELLS      =           0.0000

                TOTAL IN =   836688256.0000                  TOTAL IN =          11.6719

          OUT:                                     OUT:
          ----                                     ----
             STORAGE     =    98334696.0000               STORAGE     =           0.3347
       CONSTANT HEAD     =           0.0000         CONSTANT HEAD     =           0.0000
     HEAD DEP BOUNDS     =    19231152.0000       HEAD DEP BOUNDS     =           0.2892
      STREAM LEAKAGE     =   709645312.0000        STREAM LEAKAGE     =          11.0480
        UZF RECHARGE     =           0.0000          UZF RECHARGE     =           0.0000
               GW ET     =     9490485.0000                 GW ET     =           0.0000
     SURFACE LEAKAGE     =           0.0000       SURFACE LEAKAGE     =           0.0000
           AG WELLS      =           0.0000             AG WELLS      =           0.0000

               TOTAL OUT =   836701632.0000                 TOTAL OUT =          11.6719

                IN - OUT =      -13376.0000                  IN - OUT =      -1.4305E-05

     PERCENT DISCREPANCY =          -0.00         PERCENT DISCREPANCY =          -0.00






         TIME SUMMARY AT END OF TIME STEP   30 IN STRESS PERIOD   26
                    SECONDS     MINUTES      HOURS       DAYS        YEARS
                    -----------------------------------------------------------
   TIME STEP LENGTH  87667.      1461.1      24.352      1.0147     2.77799E-03
 STRESS PERIOD TIME 2.63000E+06  43833.      730.56      30.440     8.33397E-02
         TOTAL TIME 6.58368E+07 1.09728E+06  18288.      762.00      2.0862    
1
1
                            STRESS PERIOD NO.   27, LENGTH =   2630000.    
                            -----------------------------------------------

                              NUMBER OF TIME STEPS =    30

                               MULTIPLIER FOR DELT =     1.000

                            INITIAL TIME STEP SIZE =   87666.66    

 REUSING NON-PARAMETER GHB CELLS FROM LAST STRESS PERIOD

      2 GHB CELLS

 REUSING STREAM SEGMENT DATA FROM LAST STRESS PERIOD



            AREAL INFILTRATION RATE
 READING ON UNIT   19 WITH FORMAT: (10F4.0)            

            1           2           3           4           5           6           7           8           9          10
 ........................................................................................................................
   1   1.2000E-09   0.000       0.000       0.000       0.000       0.000       0.000       0.000       0.000       0.000    
   2   2.1000E-09  2.0000E-09  8.0000E-10  8.5000E-09   0.000       0.000       0.000       0.000       0.000       0.000    
   3   5.0000E-10  1.1000E-09  8.8000E-09  5.5000E-09   0.000       0.000       0.000       0.000       0.000       0.000    
   4   8.5000E-09  1.1000E-09  1.1000E-09  1.1000E-09  2.0000E-09   0.000       0.000       0.000       0.000       0.000    
   5   8.5000E-09  1.1000E-09  1.1000E-09  1.1000E-09  1.1000E-09   0.000       0.000       0.000       0.000       0.000    
   6   8.5000E-09  5.2000E-09  2.1000E-09  1.1000E-09  1.5000E-09   0.000       0.000       0.000       0.000       0.000    
   7   8.5000E-09  5.2000E-09  2.1000E-09  1.2000E-09  2.0000E-09   0.000       0.000       0.000       0.000       0.000    
   8   5.0000E-10  5.2000E-09  2.1000E-09  1.2000E-09  5.0000E-09   0.000       0.000       0.000       0.000       0.000    
   9   5.0000E-10  5.2000E-09  2.1000E-09  1.2000E-09  5.0000E-09   0.000       0.000       0.000       0.000       0.000    
  10   5.0000E-10  5.2000E-09  2.1000E-09  1.2000E-09  5.8000E-09   0.000       0.000       0.000       0.000       0.000    
  11   1.0000E-10  1.1000E-09  1.1000E-09  1.2000E-09  5.0000E-09   0.000       0.000       0.000       0.000       0.000    
  12   1.1000E-09  1.1000E-09  1.1000E-09  1.1000E-09  2.0000E-09   0.000       0.000       0.000       0.000       0.000    
  13   1.1000E-09  2.2000E-09  2.2000E-09  2.1000E-09  1.0000E-09   0.000       0.000       0.000       0.000       0.000    
  14   2.0000E-10  5.5000E-09  5.5000E-09  5.2000E-09  1.0000E-09   0.000       0.000       0.000       0.000       0.000    
  15    0.000      8.8000E-09  8.8000E-09   0.000       0.000       0.000       0.000       0.000       0.000       0.000    

                  ET RATE =  5.000000E-10

 USING ET EXTINCTION DEPTH FROM PREVIOUS STRESS PERIOD. CURRENT PERIOD IS:      27

 USING EXTINCTION WATER CONTENT FROM PREVIOUS STRESS PERIOD. CURRENT PERIOD IS:      27

 USING AIR ENTRY PRESSURE FROM PREVIOUS STRESS PERIOD. CURRENT PERIOD IS:      27

 USING ROOT PRESSURE HEAD FROM PREVIOUS STRESS PERIOD. CURRENT PERIOD IS:      27

 USING ROOT ACTIVITY FROM PREVIOUS STRESS PERIOD. CURRENT PERIOD IS:      27

 PROCESSING AG STRESS PERIOD DATA

 READING AG STRESS PERIOD DATA

 READING IRRIGATION SEGMENT

 READING IRRIGATION WELL

 READING SUPPLEMENTAL WELL

 END PROCESSING AG STRESS PERIOD DATA OPTIONS
 
 SOLVING FOR HEAD 
                                                   Max.-Head-Change                         Max.-Flux-Residual
  Residual-Control   Outer-Iter.   Inner-Iter.     Column Row Layer    Maximum-Head-Change  Column Row Layer    Maximum-Flux-Residual          L2-NORM 
          0                 1           2             2    1     1       0.1379874760E-02       2    1    1         0.7167407440E-01      0.1008527078E+00
          0                 2           2             2    1     1      -0.1342242635E-03       2    1    1        -0.7167412555E-02      0.1008516808E-01
          0                 3           1             2    1     1       0.9140175490E-05       2    1    1         0.5017190551E-03      0.7059695881E-03

    ------------------------------------------------
       NWT REQUIRED            3 OUTER ITERATIONS 
       AND A TOTAL OF          5 INNER ITERATIONS.
    ------------------------------------------------

 NO OUTPUT CONTROL FOR STRESS PERIOD   27   TIME STEP    1
 
 SOLVING FOR HEAD 
                                                   Max.-Head-Change                         Max.-Flux-Residual
  Residual-Control   Outer-Iter.   Inner-Iter.     Column Row Layer    Maximum-Head-Change  Column Row Layer    Maximum-Flux-Residual          L2-NORM 
          0                 1           2             2    1     1       0.1378421587E-02       2    1    1         0.7155673554E-01      0.1366280212E+00
          0                 2           2             2    1     1      -0.1340828892E-03       2    1    1        -0.7155677364E-02      0.1354171789E-01
          0                 3           1             2    1     1       0.9130548568E-05       2    1    1         0.5008975905E-03      0.9367093010E-03

    ------------------------------------------------
       NWT REQUIRED            3 OUTER ITERATIONS 
       AND A TOTAL OF          5 INNER ITERATIONS.
    ------------------------------------------------

 NO OUTPUT CONTROL FOR STRESS PERIOD   27   TIME STEP    2
 
 SOLVING FOR HEAD 
                                                   Max.-Head-Change                         Max.-Flux-Residual
  Residual-Control   Outer-Iter.   Inner-Iter.     Column Row Layer    Maximum-Head-Change  Column Row Layer    Maximum-Flux-Residual          L2-NORM 
          0                 1           2             4   13     1       0.5482068723E-02       4   13    1         0.3147858502E+00      0.6121207454E+00
          0                 2           2             7   13     1      -0.1180920055E-02       7   13    1        -0.6547712531E-01      0.8683159711E-01
          0                 3           1             7   13     1       0.8039498465E-04       7   13    1         0.4582171986E-02      0.5979223116E-02

    ------------------------------------------------
       NWT REQUIRED            3 OUTER ITERATIONS 
       AND A TOTAL OF          5 INNER ITERATIONS.
    ------------------------------------------------

 NO OUTPUT CONTROL FOR STRESS PERIOD   27   TIME STEP    3
 
 SOLVING FOR HEAD 
                                                   Max.-Head-Change                         Max.-Flux-Residual
  Residual-Control   Outer-Iter.   Inner-Iter.     Column Row Layer    Maximum-Head-Change  Column Row Layer    Maximum-Flux-Residual          L2-NORM 
          0                 1           2             2   13     1       0.5048882480E-02       4   13    1         0.2860961883E+00      0.5681840217E+00
          0                 2           2             4   13     1      -0.4801031022E-03       4   13    1        -0.2832992938E-01      0.5550001770E-01
          0                 3           1             4   13     1       0.3224009471E-04       4   13    1         0.1955977809E-02      0.3762080064E-02

    ------------------------------------------------
       NWT REQUIRED            3 OUTER ITERATIONS 
       AND A TOTAL OF          5 INNER ITERATIONS.
    ------------------------------------------------

 NO OUTPUT CONTROL FOR STRESS PERIOD   27   TIME STEP    4
 
 SOLVING FOR HEAD 
                                                   Max.-Head-Change                         Max.-Flux-Residual
  Residual-Control   Outer-Iter.   Inner-Iter.     Column Row Layer    Maximum-Head-Change  Column Row Layer    Maximum-Flux-Residual          L2-NORM 
          0                 1           2             2   13     1       0.4670320755E-02       2   13    1         0.2630643343E+00      0.5320831090E+00
          0                 2           2             4   13     1      -0.4350013232E-03       4   13    1        -0.2565424276E-01      0.5201099164E-01
          0                 3           1             4   13     1       0.2920493797E-04       4   13    1         0.1770838946E-02      0.3528684800E-02

    ------------------------------------------------
       NWT REQUIRED            3 OUTER ITERATIONS 
       AND A TOTAL OF          5 INNER ITERATIONS.
    ------------------------------------------------

 NO OUTPUT CONTROL FOR STRESS PERIOD   27   TIME STEP    5
 
 SOLVING FOR HEAD 
                                                   Max.-Head-Change                         Max.-Flux-Residual
  Residual-Control   Outer-Iter.   Inner-Iter.     Column Row Layer    Maximum-Head-Change  Column Row Layer    Maximum-Flux-Residual          L2-NORM 
          0                 1           2             2   13     1       0.4320305536E-02       2   13    1         0.2433228753E+00      0.4995454319E+00
          0                 2           2             2   13     1      -0.4022797099E-03       2   13    1        -0.2328969725E-01      0.4886663681E-01
          0                 3           1             4   13     1       0.2648823969E-04       4   13    1         0.1605186112E-02      0.3318918040E-02

    ------------------------------------------------
       NWT REQUIRED            3 OUTER ITERATIONS 
       AND A TOTAL OF          5 INNER ITERATIONS.
    ------------------------------------------------

 NO OUTPUT CONTROL FOR STRESS PERIOD   27   TIME STEP    6
 
 SOLVING FOR HEAD 
                                                   Max.-Head-Change                         Max.-Flux-Residual
  Residual-Control   Outer-Iter.   Inner-Iter.     Column Row Layer    Maximum-Head-Change  Column Row Layer    Maximum-Flux-Residual          L2-NORM 
          0                 1           2             2   13     1       0.3996988743E-02       2   13    1         0.2250884412E+00      0.4702504782E+00
          0                 2           2             2   13     1      -0.3723756936E-03       2   13    1        -0.2155596620E-01      0.4604168836E-01
          0                 3           1             4   13     1       0.2400756535E-04       4   13    1         0.1453969041E-02      0.3130782403E-02

    ------------------------------------------------
       NWT REQUIRED            3 OUTER ITERATIONS 
       AND A TOTAL OF          5 INNER ITERATIONS.
    ------------------------------------------------

 NO OUTPUT CONTROL FOR STRESS PERIOD   27   TIME STEP    7
 
 SOLVING FOR HEAD 
                                                   Max.-Head-Change                         Max.-Flux-Residual
  Residual-Control   Outer-Iter.   Inner-Iter.     Column Row Layer    Maximum-Head-Change  Column Row Layer    Maximum-Flux-Residual          L2-NORM 
          0                 1           2             2   13     1       0.3698113379E-02       2   13    1         0.2082335076E+00      0.4438925366E+00
          0                 2           2             2   13     1      -0.3446645175E-03       2   13    1        -0.1994945235E-01      0.4349970805E-01
          0                 3           1             2   13     1       0.2208037100E-04       4   13    1         0.1318753906E-02      0.2961981003E-02

    ------------------------------------------------
       NWT REQUIRED            3 OUTER ITERATIONS 
       AND A TOTAL OF          5 INNER ITERATIONS.
    ------------------------------------------------

 NO OUTPUT CONTROL FOR STRESS PERIOD   27   TIME STEP    8
 
 SOLVING FOR HEAD 
                                                   Max.-Head-Change                         Max.-Flux-Residual
  Residual-Control   Outer-Iter.   Inner-Iter.     Column Row Layer    Maximum-Head-Change  Column Row Layer    Maximum-Flux-Residual          L2-NORM 
          0                 1           2             2   13     1       0.3421846685E-02       2   13    1         0.1926545932E+00      0.4201946660E+00
          0                 2           2             2   13     1      -0.3190388359E-03       2   13    1        -0.1846393966E-01      0.4121860826E-01
          0                 3           1             2   13     1       0.2046111779E-04       2   13    1         0.1217059623E-02      0.2811501176E-02

    ------------------------------------------------
       NWT REQUIRED            3 OUTER ITERATIONS 
       AND A TOTAL OF          5 INNER ITERATIONS.
    ------------------------------------------------

 NO OUTPUT CONTROL FOR STRESS PERIOD   27   TIME STEP    9
 
 SOLVING FOR HEAD 
                                                   Max.-Head-Change                         Max.-Flux-Residual
  Residual-Control   Outer-Iter.   Inner-Iter.     Column Row Layer    Maximum-Head-Change  Column Row Layer    Maximum-Flux-Residual          L2-NORM 
          0                 1           2             2   13     1       0.3166521227E-02       2   13    1         0.1782575078E+00      0.3989141298E+00
          0                 2           2             2   13     1      -0.2953202785E-03       2   13    1        -0.1708907205E-01      0.3916957839E-01
          0                 3           1             2   13     1       0.1892291761E-04       2   13    1         0.1125410838E-02      0.2673929131E-02

    ------------------------------------------------
       NWT REQUIRED            3 OUTER ITERATIONS 
       AND A TOTAL OF          5 INNER ITERATIONS.
    ------------------------------------------------

 NO OUTPUT CONTROL FOR STRESS PERIOD   27   TIME STEP   10
 
 SOLVING FOR HEAD 
                                                   Max.-Head-Change                         Max.-Flux-Residual
  Residual-Control   Outer-Iter.   Inner-Iter.     Column Row Layer    Maximum-Head-Change  Column Row Layer    Maximum-Flux-Residual          L2-NORM 
          0                 1           2             2   13     1       0.2930570825E-02       2   13    1         0.1649539041E+00      0.3798131804E+00
          0                 2           2             2   13     1      -0.2733925768E-03       2   13    1        -0.1581811672E-01      0.3733261672E-01
          0                 3           1             2   13     1       0.1752945414E-04       2   13    1         0.1042392279E-02      0.2552054249E-02

    ------------------------------------------------
       NWT REQUIRED            3 OUTER ITERATIONS 
       AND A TOTAL OF          5 INNER ITERATIONS.
    ------------------------------------------------

 NO OUTPUT CONTROL FOR STRESS PERIOD   27   TIME STEP   11
 
 SOLVING FOR HEAD 
                                                   Max.-Head-Change                         Max.-Flux-Residual
  Residual-Control   Outer-Iter.   Inner-Iter.     Column Row Layer    Maximum-Head-Change  Column Row Layer    Maximum-Flux-Residual          L2-NORM 
          0                 1           2             2   13     1       0.2712484555E-02       2   13    1         0.1526583887E+00      0.3626835378E+00
          0                 2           2             2   13     1      -0.2531396123E-03       2   13    1        -0.1464433348E-01      0.3568689072E-01
          0                 3           1             2   13     1       0.1624949325E-04       2   13    1         0.9661489667E-03      0.2444049386E-02

    ------------------------------------------------
       NWT REQUIRED            3 OUTER ITERATIONS 
       AND A TOTAL OF          5 INNER ITERATIONS.
    ------------------------------------------------

 NO OUTPUT CONTROL FOR STRESS PERIOD   27   TIME STEP   12
 
 SOLVING FOR HEAD 
                                                   Max.-Head-Change                         Max.-Flux-Residual
  Residual-Control   Outer-Iter.   Inner-Iter.     Column Row Layer    Maximum-Head-Change  Column Row Layer    Maximum-Flux-Residual          L2-NORM 
          0                 1           2             2   13     1       0.2510830873E-02       2   13    1         0.1412901264E+00      0.3473286611E+00
          0                 2           2             2   13     1      -0.2343817872E-03       2   13    1        -0.1355725092E-01      0.3421261798E-01
          0                 3           1             2   13     1       0.1505655429E-04       2   13    1         0.8950484398E-03      0.2348351497E-02

    ------------------------------------------------
       NWT REQUIRED            3 OUTER ITERATIONS 
       AND A TOTAL OF          5 INNER ITERATIONS.
    ------------------------------------------------

 NO OUTPUT CONTROL FOR STRESS PERIOD   27   TIME STEP   13
 
 SOLVING FOR HEAD 
                                                   Max.-Head-Change                         Max.-Flux-Residual
  Residual-Control   Outer-Iter.   Inner-Iter.     Column Row Layer    Maximum-Head-Change  Column Row Layer    Maximum-Flux-Residual          L2-NORM 
          0                 1           2             2   13     1       0.2324521845E-02       2   13    1         0.1307877630E+00      0.3335792749E+00
          0                 2           2             2   13     1      -0.2170487724E-03       2   13    1        -0.1255285575E-01      0.3289223446E-01
          0                 3           1             2    2     1       0.1464612000E-04       2   13    1         0.8288983963E-03      0.2259069379E-02

    ------------------------------------------------
       NWT REQUIRED            3 OUTER ITERATIONS 
       AND A TOTAL OF          5 INNER ITERATIONS.
    ------------------------------------------------

 NO OUTPUT CONTROL FOR STRESS PERIOD   27   TIME STEP   14
 
 SOLVING FOR HEAD 
                                                   Max.-Head-Change                         Max.-Flux-Residual
  Residual-Control   Outer-Iter.   Inner-Iter.     Column Row Layer    Maximum-Head-Change  Column Row Layer    Maximum-Flux-Residual          L2-NORM 
          0                 1           2             2    2     1       0.2198362580E-02       2   13    1         0.1210755193E+00      0.3212635651E+00
          0                 2           2             2    2     1      -0.2138409652E-03       2   13    1        -0.1162243165E-01      0.3171024587E-01
          0                 3           1             2    2     1       0.1456177462E-04       2    2    1         0.8030512500E-03      0.2180921635E-02

    ------------------------------------------------
       NWT REQUIRED            3 OUTER ITERATIONS 
       AND A TOTAL OF          5 INNER ITERATIONS.
    ------------------------------------------------

 NO OUTPUT CONTROL FOR STRESS PERIOD   27   TIME STEP   15
 
 SOLVING FOR HEAD 
                                                   Max.-Head-Change                         Max.-Flux-Residual
  Residual-Control   Outer-Iter.   Inner-Iter.     Column Row Layer    Maximum-Head-Change  Column Row Layer    Maximum-Flux-Residual          L2-NORM 
          0                 1           2             2    2     1       0.2185566811E-02       2    2    1         0.1140479505E+00      0.3102003372E+00
          0                 2           2             2    2     1      -0.2125962815E-03       2    2    1        -0.1140481027E-01      0.3065034828E-01
          0                 3           1             2    2     1       0.1447701647E-04       2    2    1         0.7983369199E-03      0.2111240604E-02

    ------------------------------------------------
       NWT REQUIRED            3 OUTER ITERATIONS 
       AND A TOTAL OF          5 INNER ITERATIONS.
    ------------------------------------------------

 NO OUTPUT CONTROL FOR STRESS PERIOD   27   TIME STEP   16
 
 SOLVING FOR HEAD 
                                                   Max.-Head-Change                         Max.-Flux-Residual
  Residual-Control   Outer-Iter.   Inner-Iter.     Column Row Layer    Maximum-Head-Change  Column Row Layer    Maximum-Flux-Residual          L2-NORM 
          0                 1           2             2    2     1       0.2173126289E-02       2    2    1         0.1133931776E+00      0.3003281144E+00
          0                 2           2             2    2     1      -0.2113861537E-03       2    2    1        -0.1133933270E-01      0.2903739542E-01
          0                 3           1             3   13     1      -0.1562434919E-04       3   13    1        -0.9387540867E-03      0.2180536581E-02

    ------------------------------------------------
       NWT REQUIRED            3 OUTER ITERATIONS 
       AND A TOTAL OF          5 INNER ITERATIONS.
    ------------------------------------------------

 NO OUTPUT CONTROL FOR STRESS PERIOD   27   TIME STEP   17
 
 SOLVING FOR HEAD 
                                                   Max.-Head-Change                         Max.-Flux-Residual
  Residual-Control   Outer-Iter.   Inner-Iter.     Column Row Layer    Maximum-Head-Change  Column Row Layer    Maximum-Flux-Residual          L2-NORM 
          0                 1           2             2    2     1       0.2160871290E-02       3   13    1         0.1226258584E+00      0.3057963847E+00
          0                 2           2             3   13     1       0.2798160466E-03       3   13    1         0.1630771315E-01      0.3216871062E-01
          0                 3           1             3   13     1       0.3572606965E-04       3   13    1         0.2048776204E-02      0.2823441104E-02

    ------------------------------------------------
       NWT REQUIRED            3 OUTER ITERATIONS 
       AND A TOTAL OF          5 INNER ITERATIONS.
    ------------------------------------------------

 NO OUTPUT CONTROL FOR STRESS PERIOD   27   TIME STEP   18
 
 SOLVING FOR HEAD 
                                                   Max.-Head-Change                         Max.-Flux-Residual
  Residual-Control   Outer-Iter.   Inner-Iter.     Column Row Layer    Maximum-Head-Change  Column Row Layer    Maximum-Flux-Residual          L2-NORM 
          0                 1           2             2    2     1       0.2148798378E-02       2    2    1         0.1121127404E+00      0.2950148708E+00
          0                 2           2             3   13     1       0.2490492030E-03       3   13    1         0.1452375205E-01      0.3080319267E-01
          0                 3           1             3   13     1       0.3181918583E-04       3   13    1         0.1824120613E-02      0.2635350953E-02

    ------------------------------------------------
       NWT REQUIRED            3 OUTER ITERATIONS 
       AND A TOTAL OF          5 INNER ITERATIONS.
    ------------------------------------------------

 NO OUTPUT CONTROL FOR STRESS PERIOD   27   TIME STEP   19
 
 SOLVING FOR HEAD 
                                                   Max.-Head-Change                         Max.-Flux-Residual
  Residual-Control   Outer-Iter.   Inner-Iter.     Column Row Layer    Maximum-Head-Change  Column Row Layer    Maximum-Flux-Residual          L2-NORM 
          0                 1           2             2    2     1       0.2136904822E-02       2    2    1         0.1114867724E+00      0.2856262730E+00
          0                 2           2             3   13     1       0.2218831228E-03       3   13    1         0.1294796223E-01      0.2962531705E-01
          0                 3           1             3   13     1       0.2834094183E-04       3   13    1         0.1624141340E-02      0.2473187642E-02

    ------------------------------------------------
       NWT REQUIRED            3 OUTER ITERATIONS 
       AND A TOTAL OF          5 INNER ITERATIONS.
    ------------------------------------------------

 NO OUTPUT CONTROL FOR STRESS PERIOD   27   TIME STEP   20
 
 SOLVING FOR HEAD 
                                                   Max.-Head-Change                         Max.-Flux-Residual
  Residual-Control   Outer-Iter.   Inner-Iter.     Column Row Layer    Maximum-Head-Change  Column Row Layer    Maximum-Flux-Residual          L2-NORM 
          0                 1           2             2    2     1       0.2125187647E-02       2    2    1         0.1108701039E+00      0.2774322523E+00
          0                 2           2             2    2     1      -0.2067230156E-03       3   13    1         0.1155453251E-01      0.2860899005E-01
          0                 3           1             3   13     1       0.2527266321E-04       3   13    1         0.1447771681E-02      0.2334460431E-02

    ------------------------------------------------
       NWT REQUIRED            3 OUTER ITERATIONS 
       AND A TOTAL OF          5 INNER ITERATIONS.
    ------------------------------------------------

 NO OUTPUT CONTROL FOR STRESS PERIOD   27   TIME STEP   21
 
 SOLVING FOR HEAD 
                                                   Max.-Head-Change                         Max.-Flux-Residual
  Residual-Control   Outer-Iter.   Inner-Iter.     Column Row Layer    Maximum-Head-Change  Column Row Layer    Maximum-Flux-Residual          L2-NORM 
          0                 1           2             1    1     1       0.2120275661E-02       2    2    1         0.1102625804E+00      0.2779348851E+00
          0                 2           2             1    1     1      -0.2062450883E-03       4   13    1         0.1107776272E-01      0.2938212300E-01
          0                 3           1             4   13     1       0.2451459089E-04       4   13    1         0.1403130513E-02      0.2642349986E-02

    ------------------------------------------------
       NWT REQUIRED            3 OUTER ITERATIONS 
       AND A TOTAL OF          5 INNER ITERATIONS.
    ------------------------------------------------

 NO OUTPUT CONTROL FOR STRESS PERIOD   27   TIME STEP   22
 
 SOLVING FOR HEAD 
                                                   Max.-Head-Change                         Max.-Flux-Residual
  Residual-Control   Outer-Iter.   Inner-Iter.     Column Row Layer    Maximum-Head-Change  Column Row Layer    Maximum-Flux-Residual          L2-NORM 
          0                 1           2             1    1     1       0.2118923668E-02       1    1    1         0.1099537464E+00      0.2729701923E+00
          0                 2           2             1    1     1      -0.2061135765E-03       4   13    1         0.1108017992E-01      0.2878300570E-01
          0                 3           1             4   13     1       0.2444043609E-04       4   13    1         0.1399997034E-02      0.2564410762E-02

    ------------------------------------------------
       NWT REQUIRED            3 OUTER ITERATIONS 
       AND A TOTAL OF          5 INNER ITERATIONS.
    ------------------------------------------------

 NO OUTPUT CONTROL FOR STRESS PERIOD   27   TIME STEP   23
 
 SOLVING FOR HEAD 
                                                   Max.-Head-Change                         Max.-Flux-Residual
  Residual-Control   Outer-Iter.   Inner-Iter.     Column Row Layer    Maximum-Head-Change  Column Row Layer    Maximum-Flux-Residual          L2-NORM 
          0                 1           2             1    1     1       0.2117576595E-02       1    1    1         0.1098836477E+00      0.2656812516E+00
          0                 2           2             1    1     1      -0.2059825426E-03       1    1    1        -0.1098837037E-01      0.2779623954E-01
          0                 3           1             4   13     1       0.2168172767E-04       4   13    1         0.1241186780E-02      0.2406456867E-02

    ------------------------------------------------
       NWT REQUIRED            3 OUTER ITERATIONS 
       AND A TOTAL OF          5 INNER ITERATIONS.
    ------------------------------------------------

 NO OUTPUT CONTROL FOR STRESS PERIOD   27   TIME STEP   24
 
 SOLVING FOR HEAD 
                                                   Max.-Head-Change                         Max.-Flux-Residual
  Residual-Control   Outer-Iter.   Inner-Iter.     Column Row Layer    Maximum-Head-Change  Column Row Layer    Maximum-Flux-Residual          L2-NORM 
          0                 1           2             1    1     1       0.2116234417E-02       1    1    1         0.1098138041E+00      0.2594044771E+00
          0                 2           2             1    1     1      -0.2058519850E-03       1    1    1        -0.1098138600E-01      0.2694440923E-01
          0                 3           1             4   13     1       0.1921826670E-04       4   13    1         0.1099412522E-02      0.2269931003E-02

    ------------------------------------------------
       NWT REQUIRED            3 OUTER ITERATIONS 
       AND A TOTAL OF          5 INNER ITERATIONS.
    ------------------------------------------------

 NO OUTPUT CONTROL FOR STRESS PERIOD   27   TIME STEP   25
 
 SOLVING FOR HEAD 
                                                   Max.-Head-Change                         Max.-Flux-Residual
  Residual-Control   Outer-Iter.   Inner-Iter.     Column Row Layer    Maximum-Head-Change  Column Row Layer    Maximum-Flux-Residual          L2-NORM 
          0                 1           2             1    1     1       0.2114874243E-02       1    1    1         0.1097430283E+00      0.2539744417E+00
          0                 2           2             1    1     1      -0.2057196767E-03       1    1    1        -0.1097430840E-01      0.2622343349E-01
          0                 3           1             4   13     1       0.1712114713E-04       4   13    1         0.9787875215E-03      0.2155855948E-02

    ------------------------------------------------
       NWT REQUIRED            3 OUTER ITERATIONS 
       AND A TOTAL OF          5 INNER ITERATIONS.
    ------------------------------------------------

 NO OUTPUT CONTROL FOR STRESS PERIOD   27   TIME STEP   26
 
 SOLVING FOR HEAD 
                                                   Max.-Head-Change                         Max.-Flux-Residual
  Residual-Control   Outer-Iter.   Inner-Iter.     Column Row Layer    Maximum-Head-Change  Column Row Layer    Maximum-Flux-Residual          L2-NORM 
          0                 1           2             1    1     1       0.2113541785E-02       1    1    1         0.1096736913E+00      0.2492542945E+00
          0                 2           2             1    1     1      -0.2055900645E-03       1    1    1        -0.1096737468E-01      0.2560457744E-01
          0                 3           1             4   13     1       0.1529481641E-04       4   13    1         0.8737664421E-03      0.2060030322E-02

    ------------------------------------------------
       NWT REQUIRED            3 OUTER ITERATIONS 
       AND A TOTAL OF          5 INNER ITERATIONS.
    ------------------------------------------------

 NO OUTPUT CONTROL FOR STRESS PERIOD   27   TIME STEP   27
 
 SOLVING FOR HEAD 
                                                   Max.-Head-Change                         Max.-Flux-Residual
  Residual-Control   Outer-Iter.   Inner-Iter.     Column Row Layer    Maximum-Head-Change  Column Row Layer    Maximum-Flux-Residual          L2-NORM 
          0                 1           2             1    1     1       0.2112214120E-02       1    1    1         0.1096046055E+00      0.2451369345E+00
          0                 2           2             1    1     1      -0.2054609187E-03       1    1    1        -0.1096046607E-01      0.2507246920E-01
          0                 3           1             1    1     1       0.1399112625E-04       4   13    1         0.7801685124E-03      0.1977256987E-02

    ------------------------------------------------
       NWT REQUIRED            3 OUTER ITERATIONS 
       AND A TOTAL OF          5 INNER ITERATIONS.
    ------------------------------------------------

 NO OUTPUT CONTROL FOR STRESS PERIOD   27   TIME STEP   28
 
 SOLVING FOR HEAD 
                                                   Max.-Head-Change                         Max.-Flux-Residual
  Residual-Control   Outer-Iter.   Inner-Iter.     Column Row Layer    Maximum-Head-Change  Column Row Layer    Maximum-Flux-Residual          L2-NORM 
          0                 1           2             1    1     1       0.2110891206E-02       1    1    1         0.1095357681E+00      0.2415228227E+00
          0                 2           2             1    1     1      -0.2053322349E-03       1    1    1        -0.1095358232E-01      0.2461161483E-01
          0                 3           1             1    1     1       0.1398236318E-04       1    1    1         0.7667510398E-03      0.1906890380E-02

    ------------------------------------------------
       NWT REQUIRED            3 OUTER ITERATIONS 
       AND A TOTAL OF          5 INNER ITERATIONS.
    ------------------------------------------------

 NO OUTPUT CONTROL FOR STRESS PERIOD   27   TIME STEP   29
 
 SOLVING FOR HEAD 
                                                   Max.-Head-Change                         Max.-Flux-Residual
  Residual-Control   Outer-Iter.   Inner-Iter.     Column Row Layer    Maximum-Head-Change  Column Row Layer    Maximum-Flux-Residual          L2-NORM 
          0                 1           2             1    1     1       0.2109550182E-02       1    1    1         0.1094659909E+00      0.2383275476E+00
          0                 2           2             1    1     1      -0.2052017892E-03       1    1    1        -0.1094660456E-01      0.2421156656E-01
          0                 3           1             1    1     1       0.1397348036E-04       1    1    1         0.7662625974E-03      0.1848330691E-02

    ------------------------------------------------
       NWT REQUIRED            3 OUTER ITERATIONS 
       AND A TOTAL OF          5 INNER ITERATIONS.
    ------------------------------------------------

 NO OUTPUT CONTROL FOR STRESS PERIOD   27   TIME STEP   30



 STREAM LISTING     PERIOD     27   STEP       30

 LAYER ROW COL. STREAM  RCH.  FLOW INTO     FLOW TO   FLOW OUT OF   OVRLND.     DIRECT     STREAM       STREAM     STREAM     STREAM   STREAMBED  STREAMBED
                SEG.NO.  NO.  STRM. RCH.    AQUIFER    STRM. RCH.    RUNOFF     PRECIP       ET          HEAD       DEPTH      WIDTH   CONDCTNC.   GRADIENT

   1    1    1     1     1    3.1499E+01  2.7310E-01   3.1226E+01  0.000E+00  0.000E+00  0.000E+00  1.09431E+03  1.262E+00  1.424E+01  6.407E-02  1.421E+00
   1    2    2     1     2    3.1226E+01  4.2272E-01   3.0803E+01  0.000E+00  0.000E+00  0.000E+00  1.08932E+03  1.259E+00  1.418E+01  9.925E-02  1.420E+00
   1    3    3     1     3    3.0803E+01  3.6028E-01   3.0443E+01  0.000E+00  0.000E+00  0.000E+00  1.08367E+03  1.256E+00  1.411E+01  8.466E-02  1.419E+00
   1    3    4     1     4    3.0443E+01  3.3158E-01   3.0111E+01  0.000E+00  0.000E+00  0.000E+00  1.07866E+03  1.253E+00  1.405E+01  7.797E-02  1.418E+00
   1    4    5     2     1    2.8111E+01  3.3470E-01   2.7777E+01  0.000E+00  0.000E+00  0.000E+00  1.07322E+03  1.291E+00  1.200E+01  7.800E-02  1.430E+00
   1    5    6     2     2    2.7777E+01  2.5697E-01   2.7520E+01  0.000E+00  0.000E+00  0.000E+00  1.06779E+03  1.283E+00  1.200E+01  6.000E-02  1.428E+00
   1    6    6     2     3    2.7520E+01  2.5654E-01   2.7263E+01  0.000E+00  0.000E+00  0.000E+00  1.06307E+03  1.276E+00  1.200E+01  6.000E-02  1.425E+00
   1    7    6     2     4    2.7263E+01  2.5611E-01   2.7007E+01  0.000E+00  0.000E+00  0.000E+00  1.05834E+03  1.268E+00  1.200E+01  6.000E-02  1.423E+00
   1    8    6     2     5    2.7007E+01  2.5567E-01   2.6751E+01  0.000E+00  0.000E+00  0.000E+00  1.05362E+03  1.261E+00  1.200E+01  6.000E-02  1.420E+00
   1    3    5     3     1    2.0000E+00  2.8252E-01   1.7175E+00  0.000E+00  0.000E+00  0.000E+00  1.07555E+03  1.909E+00  9.636E+00  7.227E-02  1.955E+00
   1    3    6     3     2    1.7175E+00  2.4905E-01   1.4684E+00  0.000E+00  0.000E+00  0.000E+00  1.07264E+03  1.727E+00  8.909E+00  6.682E-02  1.864E+00
   1    3    7     3     3    1.4684E+00  1.9718E-01   1.2712E+00  0.000E+00  0.000E+00  0.000E+00  1.06987E+03  1.555E+00  8.218E+00  5.547E-02  1.777E+00
   1    4    8     3     4    1.2712E+00  2.2567E-01   1.0456E+00  0.000E+00  0.000E+00  0.000E+00  1.06682E+03  1.364E+00  7.455E+00  6.709E-02  1.682E+00
   1    5    8     3     5    1.0456E+00  1.5790E-01   8.8768E-01  0.000E+00  0.000E+00  0.000E+00  1.06362E+03  1.164E+00  6.655E+00  4.991E-02  1.582E+00
   1    6    8     3     6    8.8768E-01  5.5980E-02   8.3170E-01  0.000E+00  0.000E+00  0.000E+00  1.06158E+03  1.036E+00  6.145E+00  1.844E-02  1.518E+00
   1    5   10     4     1    1.0000E+01  9.0919E-02   9.9091E+00  0.000E+00  0.000E+00  0.000E+00  1.07836E+03  6.368E-01  1.000E+01  2.500E-02  1.212E+00
   1    5    9     4     2    9.9091E+00  1.8158E-01   9.7275E+00  0.000E+00  0.000E+00  0.000E+00  1.07154E+03  6.315E-01  1.000E+01  5.000E-02  1.211E+00
   1    6    8     4     3    9.7275E+00  1.2689E-01   9.6006E+00  0.000E+00  0.000E+00  0.000E+00  1.06381E+03  6.256E-01  1.000E+01  3.500E-02  1.209E+00
   1    6    8     5     1    1.0432E+01  2.2686E-01   1.0205E+01  0.000E+00  0.000E+00  0.000E+00  1.05868E+03  6.790E-01  1.542E+01  6.166E-02  1.226E+00
   1    7    7     5     2    1.0205E+01  2.7894E-01   9.9265E+00  0.000E+00  0.000E+00  0.000E+00  1.05417E+03  6.732E-01  1.519E+01  7.594E-02  1.224E+00
   1    8    7     5     3    9.9265E+00  1.9221E-01   9.7343E+00  0.000E+00  0.000E+00  0.000E+00  1.04992E+03  6.676E-01  1.497E+01  5.241E-02  1.223E+00
   1    8    6     5     4    9.7343E+00  1.3577E-01   9.5985E+00  0.000E+00  0.000E+00  0.000E+00  1.04691E+03  6.637E-01  1.482E+01  3.706E-02  1.221E+00
   1    9    6     6     1    3.6350E+01  2.7151E-01   3.6078E+01  0.000E+00  0.000E+00  0.000E+00  1.04425E+03  1.525E+00  1.200E+01  6.000E-02  1.508E+00
   1   10    7     6     2    3.6078E+01  2.7109E-01   3.5807E+01  0.000E+00  0.000E+00  0.000E+00  1.03970E+03  1.518E+00  1.200E+01  6.000E-02  1.506E+00
   1   11    7     6     3    3.5807E+01  2.7068E-01   3.5537E+01  0.000E+00  0.000E+00  0.000E+00  1.03515E+03  1.511E+00  1.200E+01  6.000E-02  1.504E+00
   1   12    7     6     4    3.5537E+01  2.7027E-01   3.5266E+01  0.000E+00  0.000E+00  0.000E+00  1.03060E+03  1.504E+00  1.200E+01  6.000E-02  1.501E+00
   1   13    7     6     5    3.5266E+01  5.9927E-03   3.5260E+01  0.000E+00  0.000E+00  0.000E+00  1.02741E+03  1.501E+00  1.200E+01  2.400E-02  8.323E-02
   1   14    9     7     1    1.5000E+02  1.3330E+00   1.4867E+02  0.000E+00  0.000E+00  0.000E+00  1.03987E+03  2.288E+00  5.529E+01  5.593E-01  7.945E-01
   1   13    8     7     2    1.4867E+02  1.8129E+00   1.4685E+02  0.000E+00  0.000E+00  0.000E+00  1.03478E+03  2.279E+00  5.526E+01  6.148E-01  9.829E-01
   1   13    7     7     3    1.4685E+02  1.4128E+00   1.4544E+02  0.000E+00  0.000E+00  0.000E+00  1.02969E+03  2.271E+00  5.522E+01  5.585E-01  8.433E-01
   1   13    6     8     1    1.8070E+02  9.0430E-01   1.7980E+02  0.000E+00  0.000E+00  0.000E+00  1.02489E+03  3.018E+00  4.376E+01  4.459E-01  6.760E-01
   1   13    5     8     2    1.7980E+02  1.3898E-01   1.7966E+02  0.000E+00  0.000E+00  0.000E+00  1.01864E+03  3.014E+00  4.371E+01  4.454E-01  1.040E-01
   1   13    4     8     3    1.7966E+02 -2.6181E+00   1.8228E+02  0.000E+00  0.000E+00  0.000E+00  1.01240E+03  3.022E+00  4.382E+01  4.466E+00 -1.954E-01
   1   13    3     8     4    1.8228E+02 -3.7312E+00   1.8601E+02  0.000E+00  0.000E+00  0.000E+00  1.00617E+03  3.042E+00  4.411E+01  4.495E+00 -2.767E-01
   1   13    2     8     5    1.8601E+02 -2.5445E+00   1.8855E+02  0.000E+00  0.000E+00  0.000E+00  9.99936E+02  3.061E+00  4.439E+01  4.523E+00 -1.875E-01
   1   13    1     8     6    1.8855E+02 -1.9324E+00   1.9048E+02  0.000E+00  0.000E+00  0.000E+00  9.94950E+02  3.075E+00  4.459E+01  2.726E+00 -2.363E-01
   1    8    6     9     1    0.0000E+00  0.0000E+00   0.0000E+00  0.000E+00  0.000E+00  0.000E+00  1.07875E+03  0.000E+00  4.000E+00  0.000E+00  1.000E+00
   1    8    5     9     2    0.0000E+00  0.0000E+00   0.0000E+00  0.000E+00  0.000E+00  0.000E+00  1.07825E+03  0.000E+00  4.000E+00  0.000E+00  1.000E+00





UNSATURATED ZONE PACKAGE VOLUMETRIC BUDGET FOR  TIME STEP    30 STRESS PERIOD   27
  ------------------------------------------------------------------------------



     CUMULATIVE VOLUMES      L**3       RATES FOR THIS TIME STEP      L**3/T
     ------------------                 ------------------------

           IN:                                      IN:
           ---                                      ---
        INFILTRATION =   302306882.1711          INFILTRATION =           4.4075

          OUT:                                     OUT:
          ----                                     ----
              UZF ET =   206022300.1825                UZF ET =           0.7250
        UZF RECHARGE =      787327.8919          UZF RECHARGE =           0.1016

            IN - OUT =    95497254.0967              IN - OUT =           3.5809

          STORAGE:                                 STORAGE:
          --------                                 --------
      STORAGE CHANGE =    95497900.2709        STORAGE CHANGE =           3.5809

 PERCENT DISCREPANCY IS DIFFERENCE BETWEEN IN-OUT MINUS CHANGE IN STORAGE
 DIVIDED BY THE AVERAGE OF IN AND OUT TIMES 100

 PERCENT DISCREPANCY =          -0.00     PERCENT DISCREPANCY =           0.00






1
  VOLUMETRIC BUDGET FOR ENTIRE MODEL AT END OF TIME STEP   30, STRESS PERIOD  27
  ------------------------------------------------------------------------------

     CUMULATIVE VOLUMES      L**3       RATES FOR THIS TIME STEP      L**3/T
     ------------------                 ------------------------

           IN:                                      IN:
           ---                                      ---
               AG WELLS  =           0.0000                 AG WELLS  =           0.0000
        DIVERSION SEGMEN =      848802.5000          DIVERSION SEGMEN =           0.0000
    TS         GW IRRIGA =           0.0000      TS         GW IRRIGA =           0.0000
    TION         SW IRRI =           0.0000      TION         SW IRRI =           0.0000
    GATION      SYSTEM L =           0.0000      GATION      SYSTEM L =           0.0000
    OSSES GW      SYSTEM =           0.1856      OSSES GW      SYSTEM =           0.0000

                TOTAL IN =      848802.6875                  TOTAL IN =           0.0000

          OUT:                                     OUT:
          ----                                     ----
               AG WELLS  =           0.0000                 AG WELLS  =           0.0000
        DIVERSION SEGMEN =           0.0000          DIVERSION SEGMEN =           0.0000
    TS         GW IRRIGA =           0.0000      TS         GW IRRIGA =           0.0000
    TION         SW IRRI =      848819.6875      TION         SW IRRI =           0.0000
    GATION      SYSTEM L =           0.0000      GATION      SYSTEM L =           0.0000
    OSSES GW      SYSTEM =           0.0000      OSSES GW      SYSTEM =           0.0000

               TOTAL OUT =      848819.6875                 TOTAL OUT =           0.0000

                IN - OUT =         -17.0000                  IN - OUT =           0.0000

     PERCENT DISCREPANCY =          -0.00         PERCENT DISCREPANCY =           0.00



1
  VOLUMETRIC BUDGET FOR ENTIRE MODEL AT END OF TIME STEP   30, STRESS PERIOD  27
  ------------------------------------------------------------------------------

     CUMULATIVE VOLUMES      L**3       RATES FOR THIS TIME STEP      L**3/T
     ------------------                 ------------------------

           IN:                                      IN:
           ---                                      ---
             STORAGE     =    36157516.0000               STORAGE     =           0.1174
       CONSTANT HEAD     =           0.0000         CONSTANT HEAD     =           0.0000
     HEAD DEP BOUNDS     =    19557550.0000       HEAD DEP BOUNDS     =           0.2856
      STREAM LEAKAGE     =   812514688.0000        STREAM LEAKAGE     =          11.8406
        UZF RECHARGE     =      787327.7500          UZF RECHARGE     =           0.1016
               GW ET     =           0.0000                 GW ET     =           0.0000
     SURFACE LEAKAGE     =           0.0000       SURFACE LEAKAGE     =           0.0000
           AG WELLS      =           0.0000             AG WELLS      =           0.0000

                TOTAL IN =   869017088.0000                  TOTAL IN =          12.3452

          OUT:                                     OUT:
          ----                                     ----
             STORAGE     =   102143696.0000               STORAGE     =           1.2280
       CONSTANT HEAD     =           0.0000         CONSTANT HEAD     =           0.0000
     HEAD DEP BOUNDS     =    19994520.0000       HEAD DEP BOUNDS     =           0.2910
      STREAM LEAKAGE     =   737402560.0000        STREAM LEAKAGE     =          10.8263
        UZF RECHARGE     =           0.0000          UZF RECHARGE     =           0.0000
               GW ET     =     9490485.0000                 GW ET     =           0.0000
     SURFACE LEAKAGE     =           0.0000       SURFACE LEAKAGE     =           0.0000
           AG WELLS      =           0.0000             AG WELLS      =           0.0000

               TOTAL OUT =   869031296.0000                 TOTAL OUT =          12.3453

                IN - OUT =      -14208.0000                  IN - OUT =      -1.2875E-04

     PERCENT DISCREPANCY =          -0.00         PERCENT DISCREPANCY =          -0.00






         TIME SUMMARY AT END OF TIME STEP   30 IN STRESS PERIOD   27
                    SECONDS     MINUTES      HOURS       DAYS        YEARS
                    -----------------------------------------------------------
   TIME STEP LENGTH  87667.      1461.1      24.352      1.0147     2.77799E-03
 STRESS PERIOD TIME 2.63000E+06  43833.      730.56      30.440     8.33397E-02
         TOTAL TIME 6.84668E+07 1.14111E+06  19019.      792.44      2.1696    
1
1
                            STRESS PERIOD NO.   28, LENGTH =   2630000.    
                            -----------------------------------------------

                              NUMBER OF TIME STEPS =    30

                               MULTIPLIER FOR DELT =     1.000

                            INITIAL TIME STEP SIZE =   87666.66    

 REUSING NON-PARAMETER GHB CELLS FROM LAST STRESS PERIOD

      2 GHB CELLS

 REUSING STREAM SEGMENT DATA FROM LAST STRESS PERIOD



            AREAL INFILTRATION RATE
 READING ON UNIT   19 WITH FORMAT: (10F4.0)            

            1           2           3           4           5           6           7           8           9          10
 ........................................................................................................................
   1   1.2000E-09   0.000       0.000       0.000       0.000       0.000       0.000       0.000       0.000       0.000    
   2   2.1000E-09  2.0000E-09  8.0000E-10  8.5000E-09   0.000       0.000       0.000       0.000       0.000       0.000    
   3   5.0000E-10  1.1000E-09  8.8000E-09  5.5000E-09   0.000       0.000       0.000       0.000       0.000       0.000    
   4   8.5000E-09  1.1000E-09  1.1000E-09  1.1000E-09  2.0000E-09   0.000       0.000       0.000       0.000       0.000    
   5   8.5000E-09  1.1000E-09  1.1000E-09  1.1000E-09  1.1000E-09   0.000       0.000       0.000       0.000       0.000    
   6   8.5000E-09  5.2000E-09  2.1000E-09  1.1000E-09  1.5000E-09   0.000       0.000       0.000       0.000       0.000    
   7   8.5000E-09  5.2000E-09  2.1000E-09  1.2000E-09  2.0000E-09   0.000       0.000       0.000       0.000       0.000    
   8   5.0000E-10  5.2000E-09  2.1000E-09  1.2000E-09  5.0000E-09   0.000       0.000       0.000       0.000       0.000    
   9   5.0000E-10  5.2000E-09  2.1000E-09  1.2000E-09  5.0000E-09   0.000       0.000       0.000       0.000       0.000    
  10   5.0000E-10  5.2000E-09  2.1000E-09  1.2000E-09  5.8000E-09   0.000       0.000       0.000       0.000       0.000    
  11   1.0000E-10  1.1000E-09  1.1000E-09  1.2000E-09  5.0000E-09   0.000       0.000       0.000       0.000       0.000    
  12   1.1000E-09  1.1000E-09  1.1000E-09  1.1000E-09  2.0000E-09   0.000       0.000       0.000       0.000       0.000    
  13   1.1000E-09  2.2000E-09  2.2000E-09  2.1000E-09  1.0000E-09   0.000       0.000       0.000       0.000       0.000    
  14   2.0000E-10  5.5000E-09  5.5000E-09  5.2000E-09  1.0000E-09   0.000       0.000       0.000       0.000       0.000    
  15    0.000      8.8000E-09  8.8000E-09   0.000       0.000       0.000       0.000       0.000       0.000       0.000    

                  ET RATE =  5.000000E-10

 USING ET EXTINCTION DEPTH FROM PREVIOUS STRESS PERIOD. CURRENT PERIOD IS:      28

 USING EXTINCTION WATER CONTENT FROM PREVIOUS STRESS PERIOD. CURRENT PERIOD IS:      28

 USING AIR ENTRY PRESSURE FROM PREVIOUS STRESS PERIOD. CURRENT PERIOD IS:      28

 USING ROOT PRESSURE HEAD FROM PREVIOUS STRESS PERIOD. CURRENT PERIOD IS:      28

 USING ROOT ACTIVITY FROM PREVIOUS STRESS PERIOD. CURRENT PERIOD IS:      28

 PROCESSING AG STRESS PERIOD DATA

 READING AG STRESS PERIOD DATA

 READING IRRIGATION SEGMENT

 READING IRRIGATION WELL

 READING SUPPLEMENTAL WELL

 END PROCESSING AG STRESS PERIOD DATA OPTIONS
 
 SOLVING FOR HEAD 
                                                   Max.-Head-Change                         Max.-Flux-Residual
  Residual-Control   Outer-Iter.   Inner-Iter.     Column Row Layer    Maximum-Head-Change  Column Row Layer    Maximum-Flux-Residual          L2-NORM 
          0                 1           2             4   13     1       0.6743278549E-02       4   13    1         0.3872527007E+00      0.7850942589E+00
          0                 2           2             4   13     1       0.8608428158E-03       4   13    1         0.4971548534E-01      0.8905998499E-01
          0                 3           1             4   13     1       0.1099446563E-03       4   13    1         0.6320873771E-02      0.9710526355E-02
          0                 4           1             3   13     1       0.1421098546E-04       3   13    1         0.8140702967E-03      0.1157314849E-02

    ------------------------------------------------
       NWT REQUIRED            4 OUTER ITERATIONS 
       AND A TOTAL OF          6 INNER ITERATIONS.
    ------------------------------------------------

 NO OUTPUT CONTROL FOR STRESS PERIOD   28   TIME STEP    1
 
 SOLVING FOR HEAD 
                                                   Max.-Head-Change                         Max.-Flux-Residual
  Residual-Control   Outer-Iter.   Inner-Iter.     Column Row Layer    Maximum-Head-Change  Column Row Layer    Maximum-Flux-Residual          L2-NORM 
          0                 1           2             2   13     1       0.9907156539E-02       2   13    1         0.5598842678E+00      0.1112658684E+01
          0                 2           2             4   13     1       0.1242060548E-02       4   13    1         0.7180679584E-01      0.1267965899E+00
          0                 3           2             4   13     1       0.1583368780E-03       4   13    1         0.9114348757E-02      0.1398735814E-01
          0                 4           1             3   13     1       0.2075985025E-04       3   13    1         0.1190926747E-02      0.1678139249E-02

    ------------------------------------------------
       NWT REQUIRED            4 OUTER ITERATIONS 
       AND A TOTAL OF          7 INNER ITERATIONS.
    ------------------------------------------------

 NO OUTPUT CONTROL FOR STRESS PERIOD   28   TIME STEP    2
 
 SOLVING FOR HEAD 
                                                   Max.-Head-Change                         Max.-Flux-Residual
  Residual-Control   Outer-Iter.   Inner-Iter.     Column Row Layer    Maximum-Head-Change  Column Row Layer    Maximum-Flux-Residual          L2-NORM 
          0                 1           2             2   13     1       0.9160707086E-02       2   13    1         0.5177530770E+00      0.1028922067E+01
          0                 2           2             4   13     1       0.1092857090E-02       4   13    1         0.6320593303E-01      0.1162316425E+00
          0                 3           2             3   13     1       0.1399125642E-03       4   13    1         0.8040561479E-02      0.1259515320E-01
          0                 4           1             3   13     1       0.1859661858E-04       3   13    1         0.1067022334E-02      0.1496554348E-02

    ------------------------------------------------
       NWT REQUIRED            4 OUTER ITERATIONS 
       AND A TOTAL OF          7 INNER ITERATIONS.
    ------------------------------------------------

 NO OUTPUT CONTROL FOR STRESS PERIOD   28   TIME STEP    3
 
 SOLVING FOR HEAD 
                                                   Max.-Head-Change                         Max.-Flux-Residual
  Residual-Control   Outer-Iter.   Inner-Iter.     Column Row Layer    Maximum-Head-Change  Column Row Layer    Maximum-Flux-Residual          L2-NORM 
          0                 1           2             2   13     1       0.8467874356E-02       2   13    1         0.4786351929E+00      0.9557238099E+00
          0                 2           2             4   13     1       0.9646283900E-03       4   13    1         0.5581700026E-01      0.1069772328E+00
          0                 3           2             3   13     1       0.1250414712E-03       3   13    1         0.7135570878E-02      0.1135698159E-01
          0                 4           1             3   13     1       0.1659297088E-04       3   13    1         0.9522329356E-03      0.1330783536E-02

    ------------------------------------------------
       NWT REQUIRED            4 OUTER ITERATIONS 
       AND A TOTAL OF          7 INNER ITERATIONS.
    ------------------------------------------------

 NO OUTPUT CONTROL FOR STRESS PERIOD   28   TIME STEP    4
 
 SOLVING FOR HEAD 
                                                   Max.-Head-Change                         Max.-Flux-Residual
  Residual-Control   Outer-Iter.   Inner-Iter.     Column Row Layer    Maximum-Head-Change  Column Row Layer    Maximum-Flux-Residual          L2-NORM 
          0                 1           2             2   13     1       0.7825141601E-02       2   13    1         0.4423346273E+00      0.8916622558E+00
          0                 2           2             4   13     1       0.8502278155E-03       4   13    1         0.4922332250E-01      0.9883332629E-01
          0                 3           2             3   13     1       0.1120904497E-03       3   13    1         0.6396290652E-02      0.1026984430E-01
          0                 4           1             3   13     1       0.1493933633E-04       3   13    1         0.8575504799E-03      0.1189123281E-02

    ------------------------------------------------
       NWT REQUIRED            4 OUTER ITERATIONS 
       AND A TOTAL OF          7 INNER ITERATIONS.
    ------------------------------------------------

 NO OUTPUT CONTROL FOR STRESS PERIOD   28   TIME STEP    5
 
 SOLVING FOR HEAD 
                                                   Max.-Head-Change                         Max.-Flux-Residual
  Residual-Control   Outer-Iter.   Inner-Iter.     Column Row Layer    Maximum-Head-Change  Column Row Layer    Maximum-Flux-Residual          L2-NORM 
          0                 1           2             2   13     1       0.7229472921E-02       2   13    1         0.4086828213E+00      0.8355957344E+00
          0                 2           2             3   13     1       0.7556384781E-03       3   13    1         0.4367503444E-01      0.9178850236E-01
          0                 3           1             3   13     1       0.1004963806E-03       3   13    1         0.5734126319E-02      0.9330558427E-02
          0                 4           1             3   13     1       0.1336125145E-04       3   13    1         0.7670602999E-03      0.1063606177E-02

    ------------------------------------------------
       NWT REQUIRED            4 OUTER ITERATIONS 
       AND A TOTAL OF          6 INNER ITERATIONS.
    ------------------------------------------------

 NO OUTPUT CONTROL FOR STRESS PERIOD   28   TIME STEP    6
 
 SOLVING FOR HEAD 
                                                   Max.-Head-Change                         Max.-Flux-Residual
  Residual-Control   Outer-Iter.   Inner-Iter.     Column Row Layer    Maximum-Head-Change  Column Row Layer    Maximum-Flux-Residual          L2-NORM 
          0                 1           2             2   13     1       0.6677620048E-02       2   13    1         0.3774983374E+00      0.7865012079E+00
          0                 2           2             3   13     1       0.6763361426E-03       3   13    1         0.3911438766E-01      0.8561056443E-01
          0                 3           1             3   13     1       0.8988594821E-04       3   13    1         0.5127986157E-02      0.8492546697E-02

    ------------------------------------------------
       NWT REQUIRED            3 OUTER ITERATIONS 
       AND A TOTAL OF          5 INNER ITERATIONS.
    ------------------------------------------------

 NO OUTPUT CONTROL FOR STRESS PERIOD   28   TIME STEP    7
 
 SOLVING FOR HEAD 
                                                   Max.-Head-Change                         Max.-Flux-Residual
  Residual-Control   Outer-Iter.   Inner-Iter.     Column Row Layer    Maximum-Head-Change  Column Row Layer    Maximum-Flux-Residual          L2-NORM 
          0                 1           2             2   13     1       0.6166472085E-02       2   13    1         0.3486065123E+00      0.7435440601E+00
          0                 2           2             3   13     1       0.6057603351E-03       3   13    1         0.3505446782E-01      0.8019547133E-01
          0                 3           1             3   13     1       0.8044478269E-04       3   13    1         0.4588697821E-02      0.7756776112E-02

    ------------------------------------------------
       NWT REQUIRED            3 OUTER ITERATIONS 
       AND A TOTAL OF          5 INNER ITERATIONS.
    ------------------------------------------------

 NO OUTPUT CONTROL FOR STRESS PERIOD   28   TIME STEP    8
 
 SOLVING FOR HEAD 
                                                   Max.-Head-Change                         Max.-Flux-Residual
  Residual-Control   Outer-Iter.   Inner-Iter.     Column Row Layer    Maximum-Head-Change  Column Row Layer    Maximum-Flux-Residual          L2-NORM 
          0                 1           2             2   13     1       0.5693581415E-02       2   13    1         0.3218715674E+00      0.7058944763E+00
          0                 2           2             3   13     1       0.5428077094E-03       3   13    1         0.3143140640E-01      0.7547694110E-01
          0                 3           1             3   13     1       0.7201680624E-04       3   13    1         0.4107261853E-02      0.7113421112E-02

    ------------------------------------------------
       NWT REQUIRED            3 OUTER ITERATIONS 
       AND A TOTAL OF          5 INNER ITERATIONS.
    ------------------------------------------------

 NO OUTPUT CONTROL FOR STRESS PERIOD   28   TIME STEP    9
 
 SOLVING FOR HEAD 
                                                   Max.-Head-Change                         Max.-Flux-Residual
  Residual-Control   Outer-Iter.   Inner-Iter.     Column Row Layer    Maximum-Head-Change  Column Row Layer    Maximum-Flux-Residual          L2-NORM 
          0                 1           2             2   13     1       0.5256186179E-02       2   13    1         0.2971387265E+00      0.6728550868E+00
          0                 2           2             3   13     1       0.4876054575E-03       2   13    1        -0.2862585812E-01      0.7138567955E-01
          0                 3           1             3   13     1       0.6482662685E-04       3   13    1         0.3696748864E-02      0.6564741897E-02

    ------------------------------------------------
       NWT REQUIRED            3 OUTER ITERATIONS 
       AND A TOTAL OF          5 INNER ITERATIONS.
    ------------------------------------------------

 NO OUTPUT CONTROL FOR STRESS PERIOD   28   TIME STEP   10
 
 SOLVING FOR HEAD 
                                                   Max.-Head-Change                         Max.-Flux-Residual
  Residual-Control   Outer-Iter.   Inner-Iter.     Column Row Layer    Maximum-Head-Change  Column Row Layer    Maximum-Flux-Residual          L2-NORM 
          0                 1           2             2   13     1       0.4851931425E-02       2   13    1         0.2742760933E+00      0.6438355154E+00
          0                 2           2             2   13     1      -0.4488868045E-03       2   13    1        -0.2644360069E-01      0.6781962140E-01
          0                 3           1             3   13     1       0.5816041896E-04       3   13    1         0.3315814012E-02      0.6085100298E-02

    ------------------------------------------------
       NWT REQUIRED            3 OUTER ITERATIONS 
       AND A TOTAL OF          5 INNER ITERATIONS.
    ------------------------------------------------

 NO OUTPUT CONTROL FOR STRESS PERIOD   28   TIME STEP   11
 
 SOLVING FOR HEAD 
                                                   Max.-Head-Change                         Max.-Flux-Residual
  Residual-Control   Outer-Iter.   Inner-Iter.     Column Row Layer    Maximum-Head-Change  Column Row Layer    Maximum-Flux-Residual          L2-NORM 
          0                 1           2             2   13     1       0.4478354199E-02       2   13    1         0.2531452207E+00      0.6183074489E+00
          0                 2           2             2    2     1      -0.4289042619E-03       2   13    1        -0.2442505682E-01      0.6469363648E-01
          0                 3           1             3   13     1       0.5216965821E-04       3   13    1         0.2973513388E-02      0.5663431959E-02

    ------------------------------------------------
       NWT REQUIRED            3 OUTER ITERATIONS 
       AND A TOTAL OF          5 INNER ITERATIONS.
    ------------------------------------------------

 NO OUTPUT CONTROL FOR STRESS PERIOD   28   TIME STEP   12
 
 SOLVING FOR HEAD 
                                                   Max.-Head-Change                         Max.-Flux-Residual
  Residual-Control   Outer-Iter.   Inner-Iter.     Column Row Layer    Maximum-Head-Change  Column Row Layer    Maximum-Flux-Residual          L2-NORM 
          0                 1           2             2    2     1       0.4383141258E-02       2   13    1         0.2336264308E+00      0.5958220136E+00
          0                 2           2             2    2     1      -0.4263609989E-03       2    2    1        -0.2287697762E-01      0.6195663543E-01
          0                 3           1             3   13     1       0.4676602300E-04       3   13    1         0.2664767551E-02      0.5293310042E-02

    ------------------------------------------------
       NWT REQUIRED            3 OUTER ITERATIONS 
       AND A TOTAL OF          5 INNER ITERATIONS.
    ------------------------------------------------

 NO OUTPUT CONTROL FOR STRESS PERIOD   28   TIME STEP   13
 
 SOLVING FOR HEAD 
                                                   Max.-Head-Change                         Max.-Flux-Residual
  Residual-Control   Outer-Iter.   Inner-Iter.     Column Row Layer    Maximum-Head-Change  Column Row Layer    Maximum-Flux-Residual          L2-NORM 
          0                 1           2             2    2     1       0.4357372796E-02       2    2    1         0.2274135778E+00      0.5759779210E+00
          0                 2           2             2    2     1      -0.4238544156E-03       2    2    1        -0.2274141499E-01      0.5956330653E-01
          0                 3           1             3   13     1       0.4203830950E-04       3   13    1         0.2394699144E-02      0.4976081314E-02

    ------------------------------------------------
       NWT REQUIRED            3 OUTER ITERATIONS 
       AND A TOTAL OF          5 INNER ITERATIONS.
    ------------------------------------------------

 NO OUTPUT CONTROL FOR STRESS PERIOD   28   TIME STEP   14
 
 SOLVING FOR HEAD 
                                                   Max.-Head-Change                         Max.-Flux-Residual
  Residual-Control   Outer-Iter.   Inner-Iter.     Column Row Layer    Maximum-Head-Change  Column Row Layer    Maximum-Flux-Residual          L2-NORM 
          0                 1           2             2    2     1       0.4331887573E-02       2    2    1         0.2260729284E+00      0.5584191266E+00
          0                 2           2             2    2     1      -0.4213753836E-03       2    2    1        -0.2260734908E-01      0.5746794297E-01
          0                 3           1             3   13     1       0.3778466511E-04       3   13    1         0.2151701820E-02      0.4700135944E-02

    ------------------------------------------------
       NWT REQUIRED            3 OUTER ITERATIONS 
       AND A TOTAL OF          5 INNER ITERATIONS.
    ------------------------------------------------

 NO OUTPUT CONTROL FOR STRESS PERIOD   28   TIME STEP   15
 
 SOLVING FOR HEAD 
                                                   Max.-Head-Change                         Max.-Flux-Residual
  Residual-Control   Outer-Iter.   Inner-Iter.     Column Row Layer    Maximum-Head-Change  Column Row Layer    Maximum-Flux-Residual          L2-NORM 
          0                 1           2             2    2     1       0.4306767867E-02       2    2    1         0.2247515481E+00      0.5428471346E+00
          0                 2           2             2    2     1      -0.4189319075E-03       2    2    1        -0.2247521014E-01      0.5562942681E-01
          0                 3           1             3   13     1       0.3398154337E-04       3   13    1         0.1934444296E-02      0.4461641398E-02

    ------------------------------------------------
       NWT REQUIRED            3 OUTER ITERATIONS 
       AND A TOTAL OF          5 INNER ITERATIONS.
    ------------------------------------------------

 NO OUTPUT CONTROL FOR STRESS PERIOD   28   TIME STEP   16
 
 SOLVING FOR HEAD 
                                                   Max.-Head-Change                         Max.-Flux-Residual
  Residual-Control   Outer-Iter.   Inner-Iter.     Column Row Layer    Maximum-Head-Change  Column Row Layer    Maximum-Flux-Residual          L2-NORM 
          0                 1           2             2    2     1       0.4282095797E-02       2    2    1         0.2234537035E+00      0.5290073608E+00
          0                 2           2             2    2     1      -0.4165319736E-03       2    2    1        -0.2234542476E-01      0.5401287003E-01
          0                 3           1             3   13     1       0.3060062620E-04       3   13    1         0.1741299523E-02      0.4256759631E-02

    ------------------------------------------------
       NWT REQUIRED            3 OUTER ITERATIONS 
       AND A TOTAL OF          5 INNER ITERATIONS.
    ------------------------------------------------

 NO OUTPUT CONTROL FOR STRESS PERIOD   28   TIME STEP   17
 
 SOLVING FOR HEAD 
                                                   Max.-Head-Change                         Max.-Flux-Residual
  Residual-Control   Outer-Iter.   Inner-Iter.     Column Row Layer    Maximum-Head-Change  Column Row Layer    Maximum-Flux-Residual          L2-NORM 
          0                 1           2             2    2     1       0.4257601362E-02       2    2    1         0.2221653163E+00      0.5166666153E+00
          0                 2           2             2    2     1      -0.4141493194E-03       2    2    1        -0.2221658512E-01      0.5258667522E-01
          0                 3           1             2    2     1       0.2820202540E-04       3   13    1         0.1567544741E-02      0.4078250162E-02

    ------------------------------------------------
       NWT REQUIRED            3 OUTER ITERATIONS 
       AND A TOTAL OF          5 INNER ITERATIONS.
    ------------------------------------------------

 NO OUTPUT CONTROL FOR STRESS PERIOD   28   TIME STEP   18
 
 SOLVING FOR HEAD 
                                                   Max.-Head-Change                         Max.-Flux-Residual
  Residual-Control   Outer-Iter.   Inner-Iter.     Column Row Layer    Maximum-Head-Change  Column Row Layer    Maximum-Flux-Residual          L2-NORM 
          0                 1           2             2    2     1       0.4233544009E-02       2    2    1         0.2208998915E+00      0.5056384475E+00
          0                 2           2             2    2     1      -0.4118091819E-03       2    2    1        -0.2209004177E-01      0.5132579021E-01
          0                 3           1             2    2     1       0.2804267092E-04       2    2    1         0.1546303100E-02      0.3925759239E-02

    ------------------------------------------------
       NWT REQUIRED            3 OUTER ITERATIONS 
       AND A TOTAL OF          5 INNER ITERATIONS.
    ------------------------------------------------

 NO OUTPUT CONTROL FOR STRESS PERIOD   28   TIME STEP   19
 
 SOLVING FOR HEAD 
                                                   Max.-Head-Change                         Max.-Flux-Residual
  Residual-Control   Outer-Iter.   Inner-Iter.     Column Row Layer    Maximum-Head-Change  Column Row Layer    Maximum-Flux-Residual          L2-NORM 
          0                 1           2             2    2     1       0.4209829297E-02       2    2    1         0.2196525448E+00      0.4957552524E+00
          0                 2           2             2    2     1      -0.4095023743E-03       2    2    1        -0.2196530625E-01      0.5020778768E-01
          0                 3           1             2    2     1       0.2788558590E-04       2    2    1         0.1537571615E-02      0.3792888976E-02

    ------------------------------------------------
       NWT REQUIRED            3 OUTER ITERATIONS 
       AND A TOTAL OF          5 INNER ITERATIONS.
    ------------------------------------------------

 NO OUTPUT CONTROL FOR STRESS PERIOD   28   TIME STEP   20
 
 SOLVING FOR HEAD 
                                                   Max.-Head-Change                         Max.-Flux-Residual
  Residual-Control   Outer-Iter.   Inner-Iter.     Column Row Layer    Maximum-Head-Change  Column Row Layer    Maximum-Flux-Residual          L2-NORM 
          0                 1           2             2    2     1       0.4186364294E-02       2    2    1         0.2184183791E+00      0.4868598796E+00
          0                 2           2             2    2     1      -0.4072198562E-03       2    2    1        -0.2184188883E-01      0.4921177652E-01
          0                 3           1             2    2     1       0.2773015475E-04       2    2    1         0.1528932389E-02      0.3677700619E-02

    ------------------------------------------------
       NWT REQUIRED            3 OUTER ITERATIONS 
       AND A TOTAL OF          5 INNER ITERATIONS.
    ------------------------------------------------

 NO OUTPUT CONTROL FOR STRESS PERIOD   28   TIME STEP   21
 
 SOLVING FOR HEAD 
                                                   Max.-Head-Change                         Max.-Flux-Residual
  Residual-Control   Outer-Iter.   Inner-Iter.     Column Row Layer    Maximum-Head-Change  Column Row Layer    Maximum-Flux-Residual          L2-NORM 
          0                 1           2             2    2     1       0.4163232344E-02       2    2    1         0.2172017450E+00      0.4788398766E+00
          0                 2           2             2    2     1      -0.4049697359E-03       2    2    1        -0.2172022460E-01      0.4832453274E-01
          0                 3           1             2    2     1       0.2757693035E-04       2    2    1         0.1520415899E-02      0.3579559930E-02

    ------------------------------------------------
       NWT REQUIRED            3 OUTER ITERATIONS 
       AND A TOTAL OF          5 INNER ITERATIONS.
    ------------------------------------------------

 NO OUTPUT CONTROL FOR STRESS PERIOD   28   TIME STEP   22
 
 SOLVING FOR HEAD 
                                                   Max.-Head-Change                         Max.-Flux-Residual
  Residual-Control   Outer-Iter.   Inner-Iter.     Column Row Layer    Maximum-Head-Change  Column Row Layer    Maximum-Flux-Residual          L2-NORM 
          0                 1           2             2    2     1       0.4140427640E-02       2    2    1         0.2160023793E+00      0.4715797139E+00
          0                 2           2             2    2     1      -0.4027514479E-03       2    2    1        -0.2160028725E-01      0.4752842782E-01
          0                 3           1             2    2     1       0.2742587292E-04       2    2    1         0.1512020269E-02      0.3491307985E-02

    ------------------------------------------------
       NWT REQUIRED            3 OUTER ITERATIONS 
       AND A TOTAL OF          5 INNER ITERATIONS.
    ------------------------------------------------

 NO OUTPUT CONTROL FOR STRESS PERIOD   28   TIME STEP   23
 
 SOLVING FOR HEAD 
                                                   Max.-Head-Change                         Max.-Flux-Residual
  Residual-Control   Outer-Iter.   Inner-Iter.     Column Row Layer    Maximum-Head-Change  Column Row Layer    Maximum-Flux-Residual          L2-NORM 
          0                 1           2             2    2     1       0.4117945240E-02       2    2    1         0.2148199810E+00      0.4649918207E+00
          0                 2           2             2    2     1      -0.4005645116E-03       2    2    1        -0.2148204661E-01      0.4681108342E-01
          0                 3           1             2    2     1       0.2727695123E-04       2    2    1         0.1503743459E-02      0.3415991967E-02

    ------------------------------------------------
       NWT REQUIRED            3 OUTER ITERATIONS 
       AND A TOTAL OF          5 INNER ITERATIONS.
    ------------------------------------------------

 NO OUTPUT CONTROL FOR STRESS PERIOD   28   TIME STEP   24
 
 SOLVING FOR HEAD 
                                                   Max.-Head-Change                         Max.-Flux-Residual
  Residual-Control   Outer-Iter.   Inner-Iter.     Column Row Layer    Maximum-Head-Change  Column Row Layer    Maximum-Flux-Residual          L2-NORM 
          0                 1           2             2    2     1       0.4095779566E-02       2    2    1         0.2136542938E+00      0.4589912937E+00
          0                 2           2             2    2     1      -0.3984083843E-03       2    2    1        -0.2136547712E-01      0.4615641008E-01
          0                 3           1             2    2     1       0.2713012671E-04       2    2    1         0.1495583598E-02      0.3355393016E-02

    ------------------------------------------------
       NWT REQUIRED            3 OUTER ITERATIONS 
       AND A TOTAL OF          5 INNER ITERATIONS.
    ------------------------------------------------

 NO OUTPUT CONTROL FOR STRESS PERIOD   28   TIME STEP   25
 
 SOLVING FOR HEAD 
                                                   Max.-Head-Change                         Max.-Flux-Residual
  Residual-Control   Outer-Iter.   Inner-Iter.     Column Row Layer    Maximum-Head-Change  Column Row Layer    Maximum-Flux-Residual          L2-NORM 
          0                 1           2             2    2     1       0.4073838166E-02       2    2    1         0.2125004433E+00      0.4535030407E+00
          0                 2           2             2    2     1      -0.3962740736E-03       2    2    1        -0.2125009134E-01      0.4556235036E-01
          0                 3           1             2    2     1       0.2698478873E-04       2    2    1         0.1487506603E-02      0.3278411559E-02

    ------------------------------------------------
       NWT REQUIRED            3 OUTER ITERATIONS 
       AND A TOTAL OF          5 INNER ITERATIONS.
    ------------------------------------------------

 NO OUTPUT CONTROL FOR STRESS PERIOD   28   TIME STEP   26
 
 SOLVING FOR HEAD 
                                                   Max.-Head-Change                         Max.-Flux-Residual
  Residual-Control   Outer-Iter.   Inner-Iter.     Column Row Layer    Maximum-Head-Change  Column Row Layer    Maximum-Flux-Residual          L2-NORM 
          0                 1           2             2    2     1       0.4052292878E-02       2    2    1         0.2113673915E+00      0.4484750442E+00
          0                 2           2             2    2     1      -0.3941782934E-03       2    2    1        -0.2113678543E-01      0.4503701607E-01
          0                 3           1             2    2     1       0.2684207380E-04       2    2    1         0.1479575185E-02      0.3236182260E-02

    ------------------------------------------------
       NWT REQUIRED            3 OUTER ITERATIONS 
       AND A TOTAL OF          5 INNER ITERATIONS.
    ------------------------------------------------

 NO OUTPUT CONTROL FOR STRESS PERIOD   28   TIME STEP   27
 
 SOLVING FOR HEAD 
                                                   Max.-Head-Change                         Max.-Flux-Residual
  Residual-Control   Outer-Iter.   Inner-Iter.     Column Row Layer    Maximum-Head-Change  Column Row Layer    Maximum-Flux-Residual          L2-NORM 
          0                 1           2             2    2     1       0.4030961841E-02       2    2    1         0.2102457072E+00      0.4438570776E+00
          0                 2           2             2    2     1      -0.3921033540E-03       2    2    1        -0.2102461626E-01      0.4454831495E-01
          0                 3           1             2    2     1       0.2670077844E-04       2    2    1         0.1471723350E-02      0.3189883400E-02

    ------------------------------------------------
       NWT REQUIRED            3 OUTER ITERATIONS 
       AND A TOTAL OF          5 INNER ITERATIONS.
    ------------------------------------------------

 NO OUTPUT CONTROL FOR STRESS PERIOD   28   TIME STEP   28
 
 SOLVING FOR HEAD 
                                                   Max.-Head-Change                         Max.-Flux-Residual
  Residual-Control   Outer-Iter.   Inner-Iter.     Column Row Layer    Maximum-Head-Change  Column Row Layer    Maximum-Flux-Residual          L2-NORM 
          0                 1           2             2    2     1       0.4009928958E-02       2    2    1         0.2091397168E+00      0.4395949560E+00
          0                 2           2             2    2     1      -0.3900574175E-03       2    2    1        -0.2091401652E-01      0.4409992728E-01
          0                 3           1             2    2     1       0.2656145740E-04       2    2    1         0.1463981368E-02      0.3148044758E-02

    ------------------------------------------------
       NWT REQUIRED            3 OUTER ITERATIONS 
       AND A TOTAL OF          5 INNER ITERATIONS.
    ------------------------------------------------

 NO OUTPUT CONTROL FOR STRESS PERIOD   28   TIME STEP   29
 
 SOLVING FOR HEAD 
                                                   Max.-Head-Change                         Max.-Flux-Residual
  Residual-Control   Outer-Iter.   Inner-Iter.     Column Row Layer    Maximum-Head-Change  Column Row Layer    Maximum-Flux-Residual          L2-NORM 
          0                 1           2             2    2     1       0.3989189817E-02       2    2    1         0.2080491854E+00      0.4356556853E+00
          0                 2           2             2    2     1      -0.3880400540E-03       2    2    1        -0.2080496267E-01      0.4368777805E-01
          0                 3           1             2    2     1       0.2642408300E-04       2    2    1         0.1456347608E-02      0.3110984986E-02

    ------------------------------------------------
       NWT REQUIRED            3 OUTER ITERATIONS 
       AND A TOTAL OF          5 INNER ITERATIONS.
    ------------------------------------------------

 NO OUTPUT CONTROL FOR STRESS PERIOD   28   TIME STEP   30



 STREAM LISTING     PERIOD     28   STEP       30

 LAYER ROW COL. STREAM  RCH.  FLOW INTO     FLOW TO   FLOW OUT OF   OVRLND.     DIRECT     STREAM       STREAM     STREAM     STREAM   STREAMBED  STREAMBED
                SEG.NO.  NO.  STRM. RCH.    AQUIFER    STRM. RCH.    RUNOFF     PRECIP       ET          HEAD       DEPTH      WIDTH   CONDCTNC.   GRADIENT

   1    1    1     1     1    5.7748E+01  3.6407E-01   5.7384E+01  0.000E+00  0.000E+00  0.000E+00  1.09455E+03  1.498E+00  1.799E+01  8.095E-02  1.499E+00
   1    2    2     1     2    5.7384E+01  5.6377E-01   5.6820E+01  0.000E+00  0.000E+00  0.000E+00  1.08955E+03  1.492E+00  1.793E+01  1.255E-01  1.497E+00
   1    3    3     1     3    5.6820E+01  4.8075E-01   5.6340E+01  0.000E+00  0.000E+00  0.000E+00  1.08390E+03  1.485E+00  1.786E+01  1.072E-01  1.495E+00
   1    3    4     1     4    5.6340E+01  4.4266E-01   5.5897E+01  0.000E+00  0.000E+00  0.000E+00  1.07889E+03  1.480E+00  1.781E+01  9.882E-02  1.493E+00
   1    4    5     2     1    5.3897E+01  3.8302E-01   5.3514E+01  0.000E+00  0.000E+00  0.000E+00  1.07384E+03  1.911E+00  1.200E+01  7.800E-02  1.637E+00
   1    5    6     2     2    5.3514E+01  2.9420E-01   5.3220E+01  0.000E+00  0.000E+00  0.000E+00  1.06841E+03  1.903E+00  1.200E+01  6.000E-02  1.634E+00
   1    6    6     2     3    5.3220E+01  2.9382E-01   5.2926E+01  0.000E+00  0.000E+00  0.000E+00  1.06369E+03  1.897E+00  1.200E+01  6.000E-02  1.632E+00
   1    7    6     2     4    5.2926E+01  2.9344E-01   5.2633E+01  0.000E+00  0.000E+00  0.000E+00  1.05897E+03  1.891E+00  1.200E+01  6.000E-02  1.630E+00
   1    8    6     2     5    5.2633E+01  2.9306E-01   5.2339E+01  0.000E+00  0.000E+00  0.000E+00  1.05424E+03  1.884E+00  1.200E+01  6.000E-02  1.628E+00
   1    3    5     3     1    2.0000E+00  2.8252E-01   1.7175E+00  0.000E+00  0.000E+00  0.000E+00  1.07555E+03  1.909E+00  9.636E+00  7.227E-02  1.955E+00
   1    3    6     3     2    1.7175E+00  2.4905E-01   1.4684E+00  0.000E+00  0.000E+00  0.000E+00  1.07264E+03  1.727E+00  8.909E+00  6.682E-02  1.864E+00
   1    3    7     3     3    1.4684E+00  1.9718E-01   1.2712E+00  0.000E+00  0.000E+00  0.000E+00  1.06987E+03  1.555E+00  8.218E+00  5.547E-02  1.777E+00
   1    4    8     3     4    1.2712E+00  2.2567E-01   1.0456E+00  0.000E+00  0.000E+00  0.000E+00  1.06682E+03  1.364E+00  7.455E+00  6.709E-02  1.682E+00
   1    5    8     3     5    1.0456E+00  1.5790E-01   8.8768E-01  0.000E+00  0.000E+00  0.000E+00  1.06362E+03  1.164E+00  6.655E+00  4.991E-02  1.582E+00
   1    6    8     3     6    8.8768E-01  5.5980E-02   8.3170E-01  0.000E+00  0.000E+00  0.000E+00  1.06158E+03  1.036E+00  6.145E+00  1.844E-02  1.518E+00
   1    5   10     4     1    1.0000E+01  9.0919E-02   9.9091E+00  0.000E+00  0.000E+00  0.000E+00  1.07836E+03  6.368E-01  1.000E+01  2.500E-02  1.212E+00
   1    5    9     4     2    9.9091E+00  1.8158E-01   9.7275E+00  0.000E+00  0.000E+00  0.000E+00  1.07154E+03  6.315E-01  1.000E+01  5.000E-02  1.211E+00
   1    6    8     4     3    9.7275E+00  1.2689E-01   9.6006E+00  0.000E+00  0.000E+00  0.000E+00  1.06381E+03  6.256E-01  1.000E+01  3.500E-02  1.209E+00
   1    6    8     5     1    1.0432E+01  2.2686E-01   1.0205E+01  0.000E+00  0.000E+00  0.000E+00  1.05868E+03  6.790E-01  1.542E+01  6.166E-02  1.226E+00
   1    7    7     5     2    1.0205E+01  2.7894E-01   9.9265E+00  0.000E+00  0.000E+00  0.000E+00  1.05417E+03  6.732E-01  1.519E+01  7.594E-02  1.224E+00
   1    8    7     5     3    9.9265E+00  1.9221E-01   9.7343E+00  0.000E+00  0.000E+00  0.000E+00  1.04992E+03  6.676E-01  1.497E+01  5.241E-02  1.223E+00
   1    8    6     5     4    9.7343E+00  1.3577E-01   9.5985E+00  0.000E+00  0.000E+00  0.000E+00  1.04691E+03  6.637E-01  1.482E+01  3.706E-02  1.221E+00
   1    9    6     6     1    6.1938E+01  3.0608E-01   6.1632E+01  0.000E+00  0.000E+00  0.000E+00  1.04483E+03  2.101E+00  1.200E+01  6.000E-02  1.700E+00
   1   10    7     6     2    6.1632E+01  3.0571E-01   6.1326E+01  0.000E+00  0.000E+00  0.000E+00  1.04028E+03  2.095E+00  1.200E+01  6.000E-02  1.698E+00
   1   11    7     6     3    6.1326E+01  3.0533E-01   6.1021E+01  0.000E+00  0.000E+00  0.000E+00  1.03573E+03  2.089E+00  1.200E+01  6.000E-02  1.696E+00
   1   12    7     6     4    6.1021E+01  3.0496E-01   6.0716E+01  0.000E+00  0.000E+00  0.000E+00  1.03117E+03  2.083E+00  1.200E+01  6.000E-02  1.694E+00
   1   13    7     6     5    6.0716E+01  1.9428E-02   6.0696E+01  0.000E+00  0.000E+00  0.000E+00  1.02799E+03  2.079E+00  1.200E+01  2.400E-02  2.698E-01
   1   14    9     7     1    1.5000E+02  1.3332E+00   1.4867E+02  0.000E+00  0.000E+00  0.000E+00  1.03987E+03  2.288E+00  5.529E+01  5.593E-01  7.945E-01
   1   13    8     7     2    1.4867E+02  1.8113E+00   1.4686E+02  0.000E+00  0.000E+00  0.000E+00  1.03478E+03  2.279E+00  5.526E+01  6.148E-01  9.821E-01
   1   13    7     7     3    1.4686E+02  1.4025E+00   1.4545E+02  0.000E+00  0.000E+00  0.000E+00  1.02969E+03  2.271E+00  5.522E+01  5.585E-01  8.371E-01
   1   13    6     8     1    2.0615E+02  9.9747E-01   2.0515E+02  0.000E+00  0.000E+00  0.000E+00  1.02505E+03  3.171E+00  4.597E+01  4.685E-01  7.097E-01
   1   13    5     8     2    2.0515E+02  1.9181E-01   2.0496E+02  0.000E+00  0.000E+00  0.000E+00  1.01879E+03  3.167E+00  4.592E+01  4.680E-01  1.366E-01
   1   13    4     8     3    2.0496E+02 -2.5223E+00   2.0748E+02  0.000E+00  0.000E+00  0.000E+00  1.01255E+03  3.174E+00  4.602E+01  4.690E+00 -1.793E-01
   1   13    3     8     4    2.0748E+02 -3.6888E+00   2.1117E+02  0.000E+00  0.000E+00  0.000E+00  1.00632E+03  3.192E+00  4.628E+01  4.716E+00 -2.607E-01
   1   13    2     8     5    2.1117E+02 -2.5007E+00   2.1367E+02  0.000E+00  0.000E+00  0.000E+00  1.00008E+03  3.209E+00  4.654E+01  4.742E+00 -1.758E-01
   1   13    1     8     6    2.1367E+02 -1.8906E+00   2.1556E+02  0.000E+00  0.000E+00  0.000E+00  9.95097E+02  3.222E+00  4.672E+01  2.856E+00 -2.206E-01
   1    8    6     9     1    0.0000E+00  0.0000E+00   0.0000E+00  0.000E+00  0.000E+00  0.000E+00  1.07875E+03  0.000E+00  4.000E+00  0.000E+00  1.000E+00
   1    8    5     9     2    0.0000E+00  0.0000E+00   0.0000E+00  0.000E+00  0.000E+00  0.000E+00  1.07825E+03  0.000E+00  4.000E+00  0.000E+00  1.000E+00





UNSATURATED ZONE PACKAGE VOLUMETRIC BUDGET FOR  TIME STEP    30 STRESS PERIOD   28
  ------------------------------------------------------------------------------



     CUMULATIVE VOLUMES      L**3       RATES FOR THIS TIME STEP      L**3/T
     ------------------                 ------------------------

           IN:                                      IN:
           ---                                      ---
        INFILTRATION =   313898606.7292          INFILTRATION =           4.4075

          OUT:                                     OUT:
          ----                                     ----
              UZF ET =   207929050.0500                UZF ET =           0.7250
        UZF RECHARGE =     1243983.8548          UZF RECHARGE =           0.0984

            IN - OUT =   104725572.8244              IN - OUT =           3.5841

          STORAGE:                                 STORAGE:
          --------                                 --------
      STORAGE CHANGE =   104726607.7813        STORAGE CHANGE =           3.5841

 PERCENT DISCREPANCY IS DIFFERENCE BETWEEN IN-OUT MINUS CHANGE IN STORAGE
 DIVIDED BY THE AVERAGE OF IN AND OUT TIMES 100

 PERCENT DISCREPANCY =          -0.00     PERCENT DISCREPANCY =          -0.00






1
  VOLUMETRIC BUDGET FOR ENTIRE MODEL AT END OF TIME STEP   30, STRESS PERIOD  28
  ------------------------------------------------------------------------------

     CUMULATIVE VOLUMES      L**3       RATES FOR THIS TIME STEP      L**3/T
     ------------------                 ------------------------

           IN:                                      IN:
           ---                                      ---
               AG WELLS  =           0.0000                 AG WELLS  =           0.0000
        DIVERSION SEGMEN =      848802.5000          DIVERSION SEGMEN =           0.0000
    TS         GW IRRIGA =           0.0000      TS         GW IRRIGA =           0.0000
    TION         SW IRRI =           0.0000      TION         SW IRRI =           0.0000
    GATION      SYSTEM L =           0.0000      GATION      SYSTEM L =           0.0000
    OSSES GW      SYSTEM =           0.1856      OSSES GW      SYSTEM =           0.0000

                TOTAL IN =      848802.6875                  TOTAL IN =           0.0000

          OUT:                                     OUT:
          ----                                     ----
               AG WELLS  =           0.0000                 AG WELLS  =           0.0000
        DIVERSION SEGMEN =           0.0000          DIVERSION SEGMEN =           0.0000
    TS         GW IRRIGA =           0.0000      TS         GW IRRIGA =           0.0000
    TION         SW IRRI =      848819.6875      TION         SW IRRI =           0.0000
    GATION      SYSTEM L =           0.0000      GATION      SYSTEM L =           0.0000
    OSSES GW      SYSTEM =           0.0000      OSSES GW      SYSTEM =           0.0000

               TOTAL OUT =      848819.6875                 TOTAL OUT =           0.0000

                IN - OUT =         -17.0000                  IN - OUT =           0.0000

     PERCENT DISCREPANCY =          -0.00         PERCENT DISCREPANCY =           0.00



1
  VOLUMETRIC BUDGET FOR ENTIRE MODEL AT END OF TIME STEP   30, STRESS PERIOD  28
  ------------------------------------------------------------------------------

     CUMULATIVE VOLUMES      L**3       RATES FOR THIS TIME STEP      L**3/T
     ------------------                 ------------------------

           IN:                                      IN:
           ---                                      ---
             STORAGE     =    36425072.0000               STORAGE     =       9.6399E-02
       CONSTANT HEAD     =           0.0000         CONSTANT HEAD     =           0.0000
     HEAD DEP BOUNDS     =    20308626.0000       HEAD DEP BOUNDS     =           0.2856
      STREAM LEAKAGE     =   846187328.0000        STREAM LEAKAGE     =          12.7880
        UZF RECHARGE     =     1243983.7500          UZF RECHARGE     =       9.8392E-02
               GW ET     =           0.0000                 GW ET     =           0.0000
     SURFACE LEAKAGE     =           0.0000       SURFACE LEAKAGE     =           0.0000
           AG WELLS      =           0.0000             AG WELLS      =           0.0000

                TOTAL IN =   904164992.0000                  TOTAL IN =          13.2684

          OUT:                                     OUT:
          ----                                     ----
             STORAGE     =   109896184.0000               STORAGE     =           2.3716
       CONSTANT HEAD     =           0.0000         CONSTANT HEAD     =           0.0000
     HEAD DEP BOUNDS     =    20766156.0000       HEAD DEP BOUNDS     =           0.2948
      STREAM LEAKAGE     =   764026560.0000        STREAM LEAKAGE     =          10.6024
        UZF RECHARGE     =           0.0000          UZF RECHARGE     =           0.0000
               GW ET     =     9490485.0000                 GW ET     =       9.7796E-14
     SURFACE LEAKAGE     =           0.0000       SURFACE LEAKAGE     =           0.0000
           AG WELLS      =           0.0000             AG WELLS      =           0.0000

               TOTAL OUT =   904179392.0000                 TOTAL OUT =          13.2689

                IN - OUT =      -14400.0000                  IN - OUT =      -5.0068E-04

     PERCENT DISCREPANCY =          -0.00         PERCENT DISCREPANCY =          -0.00






         TIME SUMMARY AT END OF TIME STEP   30 IN STRESS PERIOD   28
                    SECONDS     MINUTES      HOURS       DAYS        YEARS
                    -----------------------------------------------------------
   TIME STEP LENGTH  87667.      1461.1      24.352      1.0147     2.77799E-03
 STRESS PERIOD TIME 2.63000E+06  43833.      730.56      30.440     8.33397E-02
         TOTAL TIME 7.10967E+07 1.18494E+06  19749.      822.88      2.2529    
1
1
                            STRESS PERIOD NO.   29, LENGTH =   2630000.    
                            -----------------------------------------------

                              NUMBER OF TIME STEPS =    30

                               MULTIPLIER FOR DELT =     1.000

                            INITIAL TIME STEP SIZE =   87666.66    

 REUSING NON-PARAMETER GHB CELLS FROM LAST STRESS PERIOD

      2 GHB CELLS

 REUSING STREAM SEGMENT DATA FROM LAST STRESS PERIOD



            AREAL INFILTRATION RATE
 READING ON UNIT   19 WITH FORMAT: (10F4.0)            

            1           2           3           4           5           6           7           8           9          10
 ........................................................................................................................
   1   1.2000E-09   0.000       0.000       0.000       0.000       0.000       0.000       0.000       0.000       0.000    
   2   2.1000E-09  2.0000E-09  8.0000E-10  8.5000E-09   0.000       0.000       0.000       0.000       0.000       0.000    
   3   5.0000E-10  1.1000E-09  8.8000E-09  5.5000E-09   0.000       0.000       0.000       0.000       0.000       0.000    
   4   8.5000E-09  1.1000E-09  1.1000E-09  1.1000E-09  2.0000E-09   0.000       0.000       0.000       0.000       0.000    
   5   8.5000E-09  1.1000E-09  1.1000E-09  1.1000E-09  1.1000E-09   0.000       0.000       0.000       0.000       0.000    
   6   8.5000E-09  5.2000E-09  2.1000E-09  1.1000E-09  1.5000E-09   0.000       0.000       0.000       0.000       0.000    
   7   8.5000E-09  5.2000E-09  2.1000E-09  1.2000E-09  2.0000E-09   0.000       0.000       0.000       0.000       0.000    
   8   5.0000E-10  5.2000E-09  2.1000E-09  1.2000E-09  5.0000E-09   0.000       0.000       0.000       0.000       0.000    
   9   5.0000E-10  5.2000E-09  2.1000E-09  1.2000E-09  5.0000E-09   0.000       0.000       0.000       0.000       0.000    
  10   5.0000E-10  5.2000E-09  2.1000E-09  1.2000E-09  5.8000E-09   0.000       0.000       0.000       0.000       0.000    
  11   1.0000E-10  1.1000E-09  1.1000E-09  1.2000E-09  5.0000E-09   0.000       0.000       0.000       0.000       0.000    
  12   1.1000E-09  1.1000E-09  1.1000E-09  1.1000E-09  2.0000E-09   0.000       0.000       0.000       0.000       0.000    
  13   1.1000E-09  2.2000E-09  2.2000E-09  2.1000E-09  1.0000E-09   0.000       0.000       0.000       0.000       0.000    
  14   2.0000E-10  5.5000E-09  5.5000E-09  5.2000E-09  1.0000E-09   0.000       0.000       0.000       0.000       0.000    
  15    0.000      8.8000E-09  8.8000E-09   0.000       0.000       0.000       0.000       0.000       0.000       0.000    

                  ET RATE =  2.500000E-08

 USING ET EXTINCTION DEPTH FROM PREVIOUS STRESS PERIOD. CURRENT PERIOD IS:      29

 USING EXTINCTION WATER CONTENT FROM PREVIOUS STRESS PERIOD. CURRENT PERIOD IS:      29

 USING AIR ENTRY PRESSURE FROM PREVIOUS STRESS PERIOD. CURRENT PERIOD IS:      29

 USING ROOT PRESSURE HEAD FROM PREVIOUS STRESS PERIOD. CURRENT PERIOD IS:      29

 USING ROOT ACTIVITY FROM PREVIOUS STRESS PERIOD. CURRENT PERIOD IS:      29

 PROCESSING AG STRESS PERIOD DATA

 READING AG STRESS PERIOD DATA

 READING IRRIGATION SEGMENT

 READING IRRIGATION WELL

 READING SUPPLEMENTAL WELL

 END PROCESSING AG STRESS PERIOD DATA OPTIONS
 
 SOLVING FOR HEAD 
                                                   Max.-Head-Change                         Max.-Flux-Residual
  Residual-Control   Outer-Iter.   Inner-Iter.     Column Row Layer    Maximum-Head-Change  Column Row Layer    Maximum-Flux-Residual          L2-NORM 
          0                 1           2             2    2     1       0.3968651988E-02       2    2    1         0.2069692984E+00      0.4319987278E+00
          0                 2           2             2    2     1      -0.3860422727E-03       2    2    1        -0.2069697328E-01      0.4330654514E-01
          0                 3           1             2    2     1       0.2628804155E-04       2    2    1         0.1448788360E-02      0.3076820327E-02

    ------------------------------------------------
       NWT REQUIRED            3 OUTER ITERATIONS 
       AND A TOTAL OF          5 INNER ITERATIONS.
    ------------------------------------------------

 NO OUTPUT CONTROL FOR STRESS PERIOD   29   TIME STEP    1
 
 SOLVING FOR HEAD 
                                                   Max.-Head-Change                         Max.-Flux-Residual
  Residual-Control   Outer-Iter.   Inner-Iter.     Column Row Layer    Maximum-Head-Change  Column Row Layer    Maximum-Flux-Residual          L2-NORM 
          0                 1           2             4   13     1      -0.1093260919E-01       4   13    1        -0.6287293929E+00      0.1060401516E+01
          0                 2           2             2   13     1       0.9119725944E-03       2   13    1         0.5295462159E-01      0.8369414754E-01
          0                 3           1             2   13     1      -0.5926733292E-04       2   13    1        -0.3537767969E-02      0.5661763103E-02

    ------------------------------------------------
       NWT REQUIRED            3 OUTER ITERATIONS 
       AND A TOTAL OF          5 INNER ITERATIONS.
    ------------------------------------------------

 NO OUTPUT CONTROL FOR STRESS PERIOD   29   TIME STEP    2
 
 SOLVING FOR HEAD 
                                                   Max.-Head-Change                         Max.-Flux-Residual
  Residual-Control   Outer-Iter.   Inner-Iter.     Column Row Layer    Maximum-Head-Change  Column Row Layer    Maximum-Flux-Residual          L2-NORM 
          0                 1           2             4   13     1      -0.1249155022E-01       4   13    1        -0.7171182577E+00      0.1220875983E+01
          0                 2           2             4   13     1       0.1208225512E-02       4   13    1         0.7131612491E-01      0.1198528453E+00
          0                 3           1             4   13     1      -0.8135474364E-04       4   13    1        -0.4937198997E-02      0.8107425040E-02

    ------------------------------------------------
       NWT REQUIRED            3 OUTER ITERATIONS 
       AND A TOTAL OF          5 INNER ITERATIONS.
    ------------------------------------------------

 NO OUTPUT CONTROL FOR STRESS PERIOD   29   TIME STEP    3
 
 SOLVING FOR HEAD 
                                                   Max.-Head-Change                         Max.-Flux-Residual
  Residual-Control   Outer-Iter.   Inner-Iter.     Column Row Layer    Maximum-Head-Change  Column Row Layer    Maximum-Flux-Residual          L2-NORM 
          0                 1           2             4   13     1      -0.1131246533E-01       4   13    1        -0.6491693476E+00      0.1124807436E+01
          0                 2           2             4   13     1       0.1090955039E-02       4   13    1         0.6436854117E-01      0.1096471104E+00
          0                 3           1             4   13     1      -0.7340473816E-04       4   13    1        -0.4452954419E-02      0.7408679161E-02

    ------------------------------------------------
       NWT REQUIRED            3 OUTER ITERATIONS 
       AND A TOTAL OF          5 INNER ITERATIONS.
    ------------------------------------------------

 NO OUTPUT CONTROL FOR STRESS PERIOD   29   TIME STEP    4
 
 SOLVING FOR HEAD 
                                                   Max.-Head-Change                         Max.-Flux-Residual
  Residual-Control   Outer-Iter.   Inner-Iter.     Column Row Layer    Maximum-Head-Change  Column Row Layer    Maximum-Flux-Residual          L2-NORM 
          0                 1           2             4   13     1      -0.1097369554E-01       4   13    1        -0.6383937928E+00      0.1100460202E+01
          0                 2           2             4   13     1       0.1058359782E-02       4   13    1         0.6330421379E-01      0.1073081590E+00
          0                 3           1             4   13     1      -0.7121993393E-04       4   13    1        -0.4379801869E-02      0.7254206151E-02

    ------------------------------------------------
       NWT REQUIRED            3 OUTER ITERATIONS 
       AND A TOTAL OF          5 INNER ITERATIONS.
    ------------------------------------------------

 NO OUTPUT CONTROL FOR STRESS PERIOD   29   TIME STEP    5
 
 SOLVING FOR HEAD 
                                                   Max.-Head-Change                         Max.-Flux-Residual
  Residual-Control   Outer-Iter.   Inner-Iter.     Column Row Layer    Maximum-Head-Change  Column Row Layer    Maximum-Flux-Residual          L2-NORM 
          0                 1           2             4   13     1      -0.9953120120E-02       4   13    1        -0.5808141060E+00      0.1019745433E+01
          0                 2           2             4   13     1       0.9598680381E-03       4   13    1         0.5759061283E-01      0.9943599491E-01
          0                 3           1             4   13     1      -0.6458311980E-04       4   13    1        -0.3983919672E-02      0.6721208423E-02

    ------------------------------------------------
       NWT REQUIRED            3 OUTER ITERATIONS 
       AND A TOTAL OF          5 INNER ITERATIONS.
    ------------------------------------------------

 NO OUTPUT CONTROL FOR STRESS PERIOD   29   TIME STEP    6
 
 SOLVING FOR HEAD 
                                                   Max.-Head-Change                         Max.-Flux-Residual
  Residual-Control   Outer-Iter.   Inner-Iter.     Column Row Layer    Maximum-Head-Change  Column Row Layer    Maximum-Flux-Residual          L2-NORM 
          0                 1           2             4   13     1      -0.8868308636E-02       4   13    1        -0.5172587541E+00      0.9309691186E+00
          0                 2           2             4   13     1       0.8551626567E-03       4   13    1         0.5128341032E-01      0.9077514756E-01
          0                 3           1             4   13     1      -0.5751376089E-04       4   13    1        -0.3546085156E-02      0.6134200453E-02

    ------------------------------------------------
       NWT REQUIRED            3 OUTER ITERATIONS 
       AND A TOTAL OF          5 INNER ITERATIONS.
    ------------------------------------------------

 NO OUTPUT CONTROL FOR STRESS PERIOD   29   TIME STEP    7
 
 SOLVING FOR HEAD 
                                                   Max.-Head-Change                         Max.-Flux-Residual
  Residual-Control   Outer-Iter.   Inner-Iter.     Column Row Layer    Maximum-Head-Change  Column Row Layer    Maximum-Flux-Residual          L2-NORM 
          0                 1           2             3   13     1      -0.7980758732E-02       4   13    1        -0.4608807815E+00      0.8514055291E+00
          0                 2           2             4   13     1       0.7622893239E-03       4   13    1         0.4569052725E-01      0.8301702538E-01
          0                 3           1             4   13     1      -0.5127415764E-04       4   13    1        -0.3159754899E-02      0.5609482245E-02

    ------------------------------------------------
       NWT REQUIRED            3 OUTER ITERATIONS 
       AND A TOTAL OF          5 INNER ITERATIONS.
    ------------------------------------------------

 NO OUTPUT CONTROL FOR STRESS PERIOD   29   TIME STEP    8
 
 SOLVING FOR HEAD 
                                                   Max.-Head-Change                         Max.-Flux-Residual
  Residual-Control   Outer-Iter.   Inner-Iter.     Column Row Layer    Maximum-Head-Change  Column Row Layer    Maximum-Flux-Residual          L2-NORM 
          0                 1           2             2   13     1      -0.7215924108E-02       3   13    1        -0.4151526338E+00      0.7800704411E+00
          0                 2           2             3   13     1       0.6851991335E-03       4   13    1         0.4072893621E-01      0.7606964273E-01
          0                 3           1             4   13     1      -0.4575675589E-04       4   13    1        -0.2818247074E-02      0.5142884037E-02

    ------------------------------------------------
       NWT REQUIRED            3 OUTER ITERATIONS 
       AND A TOTAL OF          5 INNER ITERATIONS.
    ------------------------------------------------

 NO OUTPUT CONTROL FOR STRESS PERIOD   29   TIME STEP    9
 
 SOLVING FOR HEAD 
                                                   Max.-Head-Change                         Max.-Flux-Residual
  Residual-Control   Outer-Iter.   Inner-Iter.     Column Row Layer    Maximum-Head-Change  Column Row Layer    Maximum-Flux-Residual          L2-NORM 
          0                 1           2             2   13     1      -0.6688043032E-02       2   13    1        -0.3759132397E+00      0.7160767080E+00
          0                 2           2             2   13     1       0.6239964610E-03       3   13    1         0.3664584238E-01      0.6983812992E-01
          0                 3           1             3   13     1      -0.4081963938E-04       4   13    1        -0.2511808080E-02      0.4721935212E-02

    ------------------------------------------------
       NWT REQUIRED            3 OUTER ITERATIONS 
       AND A TOTAL OF          5 INNER ITERATIONS.
    ------------------------------------------------

 NO OUTPUT CONTROL FOR STRESS PERIOD   29   TIME STEP   10
 
 SOLVING FOR HEAD 
                                                   Max.-Head-Change                         Max.-Flux-Residual
  Residual-Control   Outer-Iter.   Inner-Iter.     Column Row Layer    Maximum-Head-Change  Column Row Layer    Maximum-Flux-Residual          L2-NORM 
          0                 1           2             2   13     1      -0.6197964018E-02       2   13    1        -0.3483848544E+00      0.6586411642E+00
          0                 2           2             2   13     1       0.5787872844E-03       2   13    1         0.3344072865E-01      0.6425023726E-01
          0                 3           1             2   13     1      -0.3717730269E-04       3   13    1        -0.2244354696E-02      0.4345383687E-02

    ------------------------------------------------
       NWT REQUIRED            3 OUTER ITERATIONS 
       AND A TOTAL OF          5 INNER ITERATIONS.
    ------------------------------------------------

 NO OUTPUT CONTROL FOR STRESS PERIOD   29   TIME STEP   11
 
 SOLVING FOR HEAD 
                                                   Max.-Head-Change                         Max.-Flux-Residual
  Residual-Control   Outer-Iter.   Inner-Iter.     Column Row Layer    Maximum-Head-Change  Column Row Layer    Maximum-Flux-Residual          L2-NORM 
          0                 1           2             2   13     1      -0.5743151002E-02       2   13    1        -0.3228325387E+00      0.6070702490E+00
          0                 2           2             2   13     1       0.5367199762E-03       2   13    1         0.3101161140E-01      0.5860257557E-01
          0                 3           1             2   13     1      -0.3451051051E-04       2   13    1        -0.2049343452E-02      0.3963652053E-02

    ------------------------------------------------
       NWT REQUIRED            3 OUTER ITERATIONS 
       AND A TOTAL OF          5 INNER ITERATIONS.
    ------------------------------------------------

 NO OUTPUT CONTROL FOR STRESS PERIOD   29   TIME STEP   12
 
 SOLVING FOR HEAD 
                                                   Max.-Head-Change                         Max.-Flux-Residual
  Residual-Control   Outer-Iter.   Inner-Iter.     Column Row Layer    Maximum-Head-Change  Column Row Layer    Maximum-Flux-Residual          L2-NORM 
          0                 1           2             2   13     1      -0.5321205000E-02       2   13    1        -0.2991219585E+00      0.5610811839E+00
          0                 2           2             2   13     1       0.4975779122E-03       2   13    1         0.2875083059E-01      0.5475717398E-01
          0                 3           1             2   13     1      -0.3202985003E-04       2   13    1        -0.1902118120E-02      0.3706038328E-02

    ------------------------------------------------
       NWT REQUIRED            3 OUTER ITERATIONS 
       AND A TOTAL OF          5 INNER ITERATIONS.
    ------------------------------------------------

 NO OUTPUT CONTROL FOR STRESS PERIOD   29   TIME STEP   13
 
 SOLVING FOR HEAD 
                                                   Max.-Head-Change                         Max.-Flux-Residual
  Residual-Control   Outer-Iter.   Inner-Iter.     Column Row Layer    Maximum-Head-Change  Column Row Layer    Maximum-Flux-Residual          L2-NORM 
          0                 1           2             2   13     1      -0.4929910930E-02       2   13    1        -0.2771299920E+00      0.5213373883E+00
          0                 2           2             2   13     1       0.4612081408E-03       2   13    1         0.2664980923E-01      0.5089695338E-01
          0                 3           1             2   13     1      -0.2970467205E-04       2   13    1        -0.1764080974E-02      0.3445827851E-02

    ------------------------------------------------
       NWT REQUIRED            3 OUTER ITERATIONS 
       AND A TOTAL OF          5 INNER ITERATIONS.
    ------------------------------------------------

 NO OUTPUT CONTROL FOR STRESS PERIOD   29   TIME STEP   14
 
 SOLVING FOR HEAD 
                                                   Max.-Head-Change                         Max.-Flux-Residual
  Residual-Control   Outer-Iter.   Inner-Iter.     Column Row Layer    Maximum-Head-Change  Column Row Layer    Maximum-Flux-Residual          L2-NORM 
          0                 1           2             2   13     1      -0.4567225654E-02       2   13    1        -0.2567426219E+00      0.4853270033E+00
          0                 2           2             2   13     1       0.4274924272E-03       2   13    1         0.2470177425E-01      0.4740233490E-01
          0                 3           1             2   13     1      -0.2750282179E-04       2   13    1        -0.1633292924E-02      0.3209834366E-02

    ------------------------------------------------
       NWT REQUIRED            3 OUTER ITERATIONS 
       AND A TOTAL OF          5 INNER ITERATIONS.
    ------------------------------------------------

 NO OUTPUT CONTROL FOR STRESS PERIOD   29   TIME STEP   15
 
 SOLVING FOR HEAD 
                                                   Max.-Head-Change                         Max.-Flux-Residual
  Residual-Control   Outer-Iter.   Inner-Iter.     Column Row Layer    Maximum-Head-Change  Column Row Layer    Maximum-Flux-Residual          L2-NORM 
          0                 1           2             2   13     1      -0.4231059817E-02       2   13    1        -0.2378431887E+00      0.4526947765E+00
          0                 2           2             2   13     1       0.3960087291E-03       2   13    1         0.2289508393E-01      0.4341584609E-01
          0                 3           1             2   13     1      -0.2558827170E-04       2   13    1        -0.1520532281E-02      0.2944474267E-02

    ------------------------------------------------
       NWT REQUIRED            3 OUTER ITERATIONS 
       AND A TOTAL OF          5 INNER ITERATIONS.
    ------------------------------------------------

 NO OUTPUT CONTROL FOR STRESS PERIOD   29   TIME STEP   16
 
 SOLVING FOR HEAD 
                                                   Max.-Head-Change                         Max.-Flux-Residual
  Residual-Control   Outer-Iter.   Inner-Iter.     Column Row Layer    Maximum-Head-Change  Column Row Layer    Maximum-Flux-Residual          L2-NORM 
          0                 1           2             2   13     1      -0.3920522062E-02       2   13    1        -0.2203436129E+00      0.4237370396E+00
          0                 2           2             2   13     1       0.3671557613E-03       2   13    1         0.2121098339E-01      0.4142417020E-01
          0                 3           1             2   13     1      -0.2368180436E-04       2   13    1        -0.1406126281E-02      0.2809332129E-02

    ------------------------------------------------
       NWT REQUIRED            3 OUTER ITERATIONS 
       AND A TOTAL OF          5 INNER ITERATIONS.
    ------------------------------------------------

 NO OUTPUT CONTROL FOR STRESS PERIOD   29   TIME STEP   17
 
 SOLVING FOR HEAD 
                                                   Max.-Head-Change                         Max.-Flux-Residual
  Residual-Control   Outer-Iter.   Inner-Iter.     Column Row Layer    Maximum-Head-Change  Column Row Layer    Maximum-Flux-Residual          L2-NORM 
          0                 1           2             2   13     1      -0.3632999939E-02       2   13    1        -0.2041542617E+00      0.3981629288E+00
          0                 2           2             2   13     1       0.3402884183E-03       2   13    1         0.1965586771E-01      0.3894645113E-01
          0                 3           1             2   13     1      -0.2197310570E-04       2   13    1        -0.1304463080E-02      0.2645247096E-02

    ------------------------------------------------
       NWT REQUIRED            3 OUTER ITERATIONS 
       AND A TOTAL OF          5 INNER ITERATIONS.
    ------------------------------------------------

 NO OUTPUT CONTROL FOR STRESS PERIOD   29   TIME STEP   18
 
 SOLVING FOR HEAD 
                                                   Max.-Head-Change                         Max.-Flux-Residual
  Residual-Control   Outer-Iter.   Inner-Iter.     Column Row Layer    Maximum-Head-Change  Column Row Layer    Maximum-Flux-Residual          L2-NORM 
          0                 1           2             2   13     1      -0.3367079000E-02       2   13    1        -0.1891826878E+00      0.3748082712E+00
          0                 2           2             2   13     1       0.3154256630E-03       2   13    1         0.1821692671E-01      0.3668434421E-01
          0                 3           1             2   13     1      -0.2035353003E-04       2   13    1        -0.1208116427E-02      0.2492417491E-02

    ------------------------------------------------
       NWT REQUIRED            3 OUTER ITERATIONS 
       AND A TOTAL OF          5 INNER ITERATIONS.
    ------------------------------------------------

 NO OUTPUT CONTROL FOR STRESS PERIOD   29   TIME STEP   19
 
 SOLVING FOR HEAD 
                                                   Max.-Head-Change                         Max.-Flux-Residual
  Residual-Control   Outer-Iter.   Inner-Iter.     Column Row Layer    Maximum-Head-Change  Column Row Layer    Maximum-Flux-Residual          L2-NORM 
          0                 1           2             2   13     1      -0.3121011482E-02       2   13    1        -0.1753301874E+00      0.3534745005E+00
          0                 2           2             2   13     1       0.2924269845E-03       2   13    1         0.1688601204E-01      0.3461883390E-01
          0                 3           1             2   13     1      -0.1889578172E-04       2   13    1        -0.1121415939E-02      0.2354992707E-02

    ------------------------------------------------
       NWT REQUIRED            3 OUTER ITERATIONS 
       AND A TOTAL OF          5 INNER ITERATIONS.
    ------------------------------------------------

 NO OUTPUT CONTROL FOR STRESS PERIOD   29   TIME STEP   20
 
 SOLVING FOR HEAD 
                                                   Max.-Head-Change                         Max.-Flux-Residual
  Residual-Control   Outer-Iter.   Inner-Iter.     Column Row Layer    Maximum-Head-Change  Column Row Layer    Maximum-Flux-Residual          L2-NORM 
          0                 1           2             2   13     1      -0.2893384835E-02       2   13    1        -0.1625171426E+00      0.3339910014E+00
          0                 2           2             2   13     1       0.2711523950E-03       2   13    1         0.1565501045E-01      0.3273312166E-01
          0                 3           1             2   13     1      -0.1751527126E-04       2   13    1        -0.1039302667E-02      0.2229063596E-02

    ------------------------------------------------
       NWT REQUIRED            3 OUTER ITERATIONS 
       AND A TOTAL OF          5 INNER ITERATIONS.
    ------------------------------------------------

 NO OUTPUT CONTROL FOR STRESS PERIOD   29   TIME STEP   21
 
 SOLVING FOR HEAD 
                                                   Max.-Head-Change                         Max.-Flux-Residual
  Residual-Control   Outer-Iter.   Inner-Iter.     Column Row Layer    Maximum-Head-Change  Column Row Layer    Maximum-Flux-Residual          L2-NORM 
          0                 1           2             2   13     1      -0.2682717970E-02       2   13    1        -0.1506598745E+00      0.3161952646E+00
          0                 2           2             1   13     1       0.2526317580E-03       2   13    1         0.1451374590E-01      0.3101162651E-01
          0                 3           1             1   13     1      -0.1652121133E-04       2   13    1        -0.9634574053E-03      0.2114174588E-02

    ------------------------------------------------
       NWT REQUIRED            3 OUTER ITERATIONS 
       AND A TOTAL OF          5 INNER ITERATIONS.
    ------------------------------------------------

 NO OUTPUT CONTROL FOR STRESS PERIOD   29   TIME STEP   22
 
 SOLVING FOR HEAD 
                                                   Max.-Head-Change                         Max.-Flux-Residual
  Residual-Control   Outer-Iter.   Inner-Iter.     Column Row Layer    Maximum-Head-Change  Column Row Layer    Maximum-Flux-Residual          L2-NORM 
          0                 1           2             1   13     1      -0.2556564251E-02       2   13    1        -0.1396895936E+00      0.2999396525E+00
          0                 2           2             1   13     1       0.2417144914E-03       1   13    1         0.1351965474E-01      0.2943592561E-01
          0                 3           1             1   13     1      -0.1581710207E-04       1   13    1        -0.9095390578E-03      0.2005727352E-02

    ------------------------------------------------
       NWT REQUIRED            3 OUTER ITERATIONS 
       AND A TOTAL OF          5 INNER ITERATIONS.
    ------------------------------------------------

 NO OUTPUT CONTROL FOR STRESS PERIOD   29   TIME STEP   23
 
 SOLVING FOR HEAD 
                                                   Max.-Head-Change                         Max.-Flux-Residual
  Residual-Control   Outer-Iter.   Inner-Iter.     Column Row Layer    Maximum-Head-Change  Column Row Layer    Maximum-Flux-Residual          L2-NORM 
          0                 1           2             1   13     1      -0.2443433952E-02       1   13    1        -0.1329565728E+00      0.2850968095E+00
          0                 2           2             1   13     1       0.2312215285E-03       1   13    1         0.1293511403E-01      0.2800572407E-01
          0                 3           1             1   13     1      -0.1515580086E-04       1   13    1        -0.8716325528E-03      0.1913318240E-02

    ------------------------------------------------
       NWT REQUIRED            3 OUTER ITERATIONS 
       AND A TOTAL OF          5 INNER ITERATIONS.
    ------------------------------------------------

 NO OUTPUT CONTROL FOR STRESS PERIOD   29   TIME STEP   24
 
 SOLVING FOR HEAD 
                                                   Max.-Head-Change                         Max.-Flux-Residual
  Residual-Control   Outer-Iter.   Inner-Iter.     Column Row Layer    Maximum-Head-Change  Column Row Layer    Maximum-Flux-Residual          L2-NORM 
          0                 1           2             1   13     1      -0.2334716497E-02       1   13    1        -0.1270630591E+00      0.2715402900E+00
          0                 2           2             1   13     1       0.2210929502E-03       1   13    1         0.1237067552E-01      0.2669591078E-01
          0                 3           1             1   13     1      -0.1450126117E-04       1   13    1        -0.8341326234E-03      0.1826057719E-02

    ------------------------------------------------
       NWT REQUIRED            3 OUTER ITERATIONS 
       AND A TOTAL OF          5 INNER ITERATIONS.
    ------------------------------------------------

 NO OUTPUT CONTROL FOR STRESS PERIOD   29   TIME STEP   25
 
 SOLVING FOR HEAD 
                                                   Max.-Head-Change                         Max.-Flux-Residual
  Residual-Control   Outer-Iter.   Inner-Iter.     Column Row Layer    Maximum-Head-Change  Column Row Layer    Maximum-Flux-Residual          L2-NORM 
          0                 1           2             1   13     1      -0.2230326673E-02       1   13    1        -0.1214021601E+00      0.2591568855E+00
          0                 2           2             1   13     1       0.2113564504E-03       1   13    1         0.1182791843E-01      0.2549706210E-01
          0                 3           1             1   13     1      -0.1388002495E-04       1   13    1        -0.7984856279E-03      0.1749408122E-02

    ------------------------------------------------
       NWT REQUIRED            3 OUTER ITERATIONS 
       AND A TOTAL OF          5 INNER ITERATIONS.
    ------------------------------------------------

 NO OUTPUT CONTROL FOR STRESS PERIOD   29   TIME STEP   26
 
 SOLVING FOR HEAD 
                                                   Max.-Head-Change                         Max.-Flux-Residual
  Residual-Control   Outer-Iter.   Inner-Iter.     Column Row Layer    Maximum-Head-Change  Column Row Layer    Maximum-Flux-Residual          L2-NORM 
          0                 1           2             1   13     1      -0.2130148843E-02       1   13    1        -0.1159678408E+00      0.2478513544E+00
          0                 2           2             1   13     1       0.2019940663E-03       1   13    1         0.1130580459E-01      0.2440541687E-01
          0                 3           1             1   13     1      -0.1326559818E-04       1   13    1        -0.7633077039E-03      0.1672569785E-02

    ------------------------------------------------
       NWT REQUIRED            3 OUTER ITERATIONS 
       AND A TOTAL OF          5 INNER ITERATIONS.
    ------------------------------------------------

 NO OUTPUT CONTROL FOR STRESS PERIOD   29   TIME STEP   27
 
 SOLVING FOR HEAD 
                                                   Max.-Head-Change                         Max.-Flux-Residual
  Residual-Control   Outer-Iter.   Inner-Iter.     Column Row Layer    Maximum-Head-Change  Column Row Layer    Maximum-Flux-Residual          L2-NORM 
          0                 1           2             1   13     1      -0.2033983970E-02       1   13    1        -0.1107494846E+00      0.2375230053E+00
          0                 2           2             1   13     1       0.1929980660E-03       1   13    1         0.1080396607E-01      0.2340736216E-01
          0                 3           1             1   13     1      -0.1268181823E-04       1   13    1        -0.7298325145E-03      0.1606232472E-02

    ------------------------------------------------
       NWT REQUIRED            3 OUTER ITERATIONS 
       AND A TOTAL OF          5 INNER ITERATIONS.
    ------------------------------------------------

 NO OUTPUT CONTROL FOR STRESS PERIOD   29   TIME STEP   28
 
 SOLVING FOR HEAD 
                                                   Max.-Head-Change                         Max.-Flux-Residual
  Residual-Control   Outer-Iter.   Inner-Iter.     Column Row Layer    Maximum-Head-Change  Column Row Layer    Maximum-Flux-Residual          L2-NORM 
          0                 1           2             1   13     1      -0.1941819367E-02       1   13    1        -0.1057467121E+00      0.2280903304E+00
          0                 2           2             1   13     1       0.1843790325E-03       1   13    1         0.1032301038E-01      0.2249719930E-01
          0                 3           1             1   13     1      -0.1214226021E-04       1   13    1        -0.6988945315E-03      0.1545744229E-02

    ------------------------------------------------
       NWT REQUIRED            3 OUTER ITERATIONS 
       AND A TOTAL OF          5 INNER ITERATIONS.
    ------------------------------------------------

 NO OUTPUT CONTROL FOR STRESS PERIOD   29   TIME STEP   29
 
 SOLVING FOR HEAD 
                                                   Max.-Head-Change                         Max.-Flux-Residual
  Residual-Control   Outer-Iter.   Inner-Iter.     Column Row Layer    Maximum-Head-Change  Column Row Layer    Maximum-Flux-Residual          L2-NORM 
          0                 1           2             4   13     1       0.4960369842E-02       4   13    1         0.2858995898E+00      0.5233178497E+00
          0                 2           2             7   13     1      -0.1586965645E-02       7   13    1        -0.8802931133E-01      0.1001503822E+00
          0                 3           2             7   13     1       0.1080352253E-03       7   13    1         0.6160312751E-02      0.6950697341E-02
          0                 4           1             7   13     1      -0.4296518758E-05       7   13    1        -0.2518255469E-03      0.2805654957E-03

    ------------------------------------------------
       NWT REQUIRED            4 OUTER ITERATIONS 
       AND A TOTAL OF          7 INNER ITERATIONS.
    ------------------------------------------------

 NO OUTPUT CONTROL FOR STRESS PERIOD   29   TIME STEP   30



 STREAM LISTING     PERIOD     29   STEP       30

 LAYER ROW COL. STREAM  RCH.  FLOW INTO     FLOW TO   FLOW OUT OF   OVRLND.     DIRECT     STREAM       STREAM     STREAM     STREAM   STREAMBED  STREAMBED
                SEG.NO.  NO.  STRM. RCH.    AQUIFER    STRM. RCH.    RUNOFF     PRECIP       ET          HEAD       DEPTH      WIDTH   CONDCTNC.   GRADIENT

   1    1    1     1     1    3.7161E+01  2.9408E-01   3.6867E+01  0.000E+00  0.000E+00  0.000E+00  1.09436E+03  1.310E+00  1.516E+01  6.824E-02  1.437E+00
   1    2    2     1     2    3.6867E+01  4.5538E-01   3.6412E+01  0.000E+00  0.000E+00  0.000E+00  1.08937E+03  1.307E+00  1.511E+01  1.057E-01  1.436E+00
   1    3    3     1     3    3.6412E+01  3.8831E-01   3.6024E+01  0.000E+00  0.000E+00  0.000E+00  1.08372E+03  1.303E+00  1.504E+01  9.023E-02  1.434E+00
   1    3    4     1     4    3.6024E+01  3.5753E-01   3.5666E+01  0.000E+00  0.000E+00  0.000E+00  1.07871E+03  1.300E+00  1.498E+01  8.314E-02  1.433E+00
   1    4    5     2     1    3.3666E+01  3.4626E-01   3.3320E+01  0.000E+00  0.000E+00  0.000E+00  1.07337E+03  1.439E+00  1.200E+01  7.800E-02  1.480E+00
   1    5    6     2     2    3.3320E+01  2.6588E-01   3.3054E+01  0.000E+00  0.000E+00  0.000E+00  1.06794E+03  1.431E+00  1.200E+01  6.000E-02  1.477E+00
   1    6    6     2     3    3.3054E+01  2.6546E-01   3.2789E+01  0.000E+00  0.000E+00  0.000E+00  1.06322E+03  1.424E+00  1.200E+01  6.000E-02  1.475E+00
   1    7    6     2     4    3.2789E+01  2.6505E-01   3.2524E+01  0.000E+00  0.000E+00  0.000E+00  1.05849E+03  1.417E+00  1.200E+01  6.000E-02  1.472E+00
   1    8    6     2     5    3.2524E+01  2.6464E-01   3.2259E+01  0.000E+00  0.000E+00  0.000E+00  1.05377E+03  1.411E+00  1.200E+01  6.000E-02  1.470E+00
   1    3    5     3     1    2.0000E+00  2.8252E-01   1.7175E+00  0.000E+00  0.000E+00  0.000E+00  1.07555E+03  1.909E+00  9.636E+00  7.227E-02  1.955E+00
   1    3    6     3     2    1.7175E+00  2.4905E-01   1.4684E+00  0.000E+00  0.000E+00  0.000E+00  1.07264E+03  1.727E+00  8.909E+00  6.682E-02  1.864E+00
   1    3    7     3     3    1.4684E+00  1.9718E-01   1.2712E+00  0.000E+00  0.000E+00  0.000E+00  1.06987E+03  1.555E+00  8.218E+00  5.547E-02  1.777E+00
   1    4    8     3     4    1.2712E+00  2.2567E-01   1.0456E+00  0.000E+00  0.000E+00  0.000E+00  1.06682E+03  1.364E+00  7.455E+00  6.709E-02  1.682E+00
   1    5    8     3     5    1.0456E+00  1.5790E-01   8.8768E-01  0.000E+00  0.000E+00  0.000E+00  1.06362E+03  1.164E+00  6.655E+00  4.991E-02  1.582E+00
   1    6    8     3     6    8.8768E-01  5.5980E-02   8.3170E-01  0.000E+00  0.000E+00  0.000E+00  1.06158E+03  1.036E+00  6.145E+00  1.844E-02  1.518E+00
   1    5   10     4     1    1.0000E+01  9.0919E-02   9.9091E+00  0.000E+00  0.000E+00  0.000E+00  1.07836E+03  6.368E-01  1.000E+01  2.500E-02  1.212E+00
   1    5    9     4     2    9.9091E+00  1.8158E-01   9.7275E+00  0.000E+00  0.000E+00  0.000E+00  1.07154E+03  6.315E-01  1.000E+01  5.000E-02  1.211E+00
   1    6    8     4     3    9.7275E+00  1.2689E-01   9.6006E+00  0.000E+00  0.000E+00  0.000E+00  1.06381E+03  6.256E-01  1.000E+01  3.500E-02  1.209E+00
   1    6    8     5     1    1.0432E+01  2.2686E-01   1.0205E+01  0.000E+00  0.000E+00  0.000E+00  1.05868E+03  6.790E-01  1.542E+01  6.166E-02  1.226E+00
   1    7    7     5     2    1.0205E+01  2.7894E-01   9.9265E+00  0.000E+00  0.000E+00  0.000E+00  1.05417E+03  6.732E-01  1.519E+01  7.594E-02  1.224E+00
   1    8    7     5     3    9.9265E+00  1.9221E-01   9.7343E+00  0.000E+00  0.000E+00  0.000E+00  1.04992E+03  6.676E-01  1.497E+01  5.241E-02  1.223E+00
   1    8    6     5     4    9.7343E+00  1.3577E-01   9.5985E+00  0.000E+00  0.000E+00  0.000E+00  1.04691E+03  6.637E-01  1.482E+01  3.706E-02  1.221E+00
   1    9    6     6     1    4.1857E+01  2.7961E-01   4.1578E+01  0.000E+00  0.000E+00  0.000E+00  1.04439E+03  1.660E+00  1.200E+01  6.000E-02  1.553E+00
   1   10    7     6     2    4.1578E+01  2.7921E-01   4.1299E+01  0.000E+00  0.000E+00  0.000E+00  1.03984E+03  1.654E+00  1.200E+01  6.000E-02  1.551E+00
   1   11    7     6     3    4.1299E+01  2.7881E-01   4.1020E+01  0.000E+00  0.000E+00  0.000E+00  1.03528E+03  1.647E+00  1.200E+01  6.000E-02  1.549E+00
   1   12    7     6     4    4.1020E+01  2.7841E-01   4.0741E+01  0.000E+00  0.000E+00  0.000E+00  1.03073E+03  1.640E+00  1.200E+01  6.000E-02  1.547E+00
   1   13    7     6     5    4.0741E+01  8.8425E-03   4.0733E+01  0.000E+00  0.000E+00  0.000E+00  1.02755E+03  1.637E+00  1.200E+01  2.400E-02  1.228E-01
   1   14    9     7     1    1.5000E+02  1.3333E+00   1.4867E+02  0.000E+00  0.000E+00  0.000E+00  1.03987E+03  2.288E+00  5.529E+01  5.593E-01  7.946E-01
   1   13    8     7     2    1.4867E+02  1.8099E+00   1.4686E+02  0.000E+00  0.000E+00  0.000E+00  1.03478E+03  2.279E+00  5.526E+01  6.148E-01  9.813E-01
   1   13    7     7     3    1.4686E+02  1.4033E+00   1.4545E+02  0.000E+00  0.000E+00  0.000E+00  1.02969E+03  2.271E+00  5.522E+01  5.585E-01  8.376E-01
   1   13    6     8     1    1.8619E+02  9.1853E-01   1.8527E+02  0.000E+00  0.000E+00  0.000E+00  1.02493E+03  3.052E+00  4.425E+01  4.509E-01  6.790E-01
   1   13    5     8     2    1.8527E+02  1.4390E-01   1.8512E+02  0.000E+00  0.000E+00  0.000E+00  1.01867E+03  3.049E+00  4.420E+01  4.504E-01  1.065E-01
   1   13    4     8     3    1.8512E+02 -2.4179E+00   1.8754E+02  0.000E+00  0.000E+00  0.000E+00  1.01243E+03  3.056E+00  4.431E+01  4.515E+00 -1.785E-01
   1   13    3     8     4    1.8754E+02 -3.5364E+00   1.9108E+02  0.000E+00  0.000E+00  0.000E+00  1.00620E+03  3.074E+00  4.457E+01  4.542E+00 -2.595E-01
   1   13    2     8     5    1.9108E+02 -2.3638E+00   1.9344E+02  0.000E+00  0.000E+00  0.000E+00  9.99967E+02  3.092E+00  4.483E+01  4.568E+00 -1.725E-01
   1   13    1     8     6    1.9344E+02 -1.8945E+00   1.9534E+02  0.000E+00  0.000E+00  0.000E+00  9.94979E+02  3.104E+00  4.501E+01  2.752E+00 -2.295E-01
   1    8    6     9     1    0.0000E+00  0.0000E+00   0.0000E+00  0.000E+00  0.000E+00  0.000E+00  1.07875E+03  0.000E+00  4.000E+00  0.000E+00  1.000E+00
   1    8    5     9     2    0.0000E+00  0.0000E+00   0.0000E+00  0.000E+00  0.000E+00  0.000E+00  1.07825E+03  0.000E+00  4.000E+00  0.000E+00  1.000E+00





UNSATURATED ZONE PACKAGE VOLUMETRIC BUDGET FOR  TIME STEP    30 STRESS PERIOD   29
  ------------------------------------------------------------------------------



     CUMULATIVE VOLUMES      L**3       RATES FOR THIS TIME STEP      L**3/T
     ------------------                 ------------------------

           IN:                                      IN:
           ---                                      ---
        INFILTRATION =   325490331.2874          INFILTRATION =           4.4075

          OUT:                                     OUT:
          ----                                     ----
              UZF ET =   233355335.1995                UZF ET =           4.4075
        UZF RECHARGE =     1252507.2445          UZF RECHARGE =       0.0000E+00

            IN - OUT =    90882488.8434              IN - OUT =       0.0000E+00

          STORAGE:                                 STORAGE:
          --------                                 --------
      STORAGE CHANGE =    90883650.5235        STORAGE CHANGE =       5.6271E-14

 PERCENT DISCREPANCY IS DIFFERENCE BETWEEN IN-OUT MINUS CHANGE IN STORAGE
 DIVIDED BY THE AVERAGE OF IN AND OUT TIMES 100

 PERCENT DISCREPANCY =          -0.00     PERCENT DISCREPANCY =           0.00






1
  VOLUMETRIC BUDGET FOR ENTIRE MODEL AT END OF TIME STEP   30, STRESS PERIOD  29
  ------------------------------------------------------------------------------

     CUMULATIVE VOLUMES      L**3       RATES FOR THIS TIME STEP      L**3/T
     ------------------                 ------------------------

           IN:                                      IN:
           ---                                      ---
               AG WELLS  =           0.0000                 AG WELLS  =           0.0000
        DIVERSION SEGMEN =      848802.5000          DIVERSION SEGMEN =           0.0000
    TS         GW IRRIGA =           0.0000      TS         GW IRRIGA =           0.0000
    TION         SW IRRI =           0.0000      TION         SW IRRI =           0.0000
    GATION      SYSTEM L =           0.0000      GATION      SYSTEM L =           0.0000
    OSSES GW      SYSTEM =           0.1856      OSSES GW      SYSTEM =           0.0000

                TOTAL IN =      848802.6875                  TOTAL IN =           0.0000

          OUT:                                     OUT:
          ----                                     ----
               AG WELLS  =           0.0000                 AG WELLS  =           0.0000
        DIVERSION SEGMEN =           0.0000          DIVERSION SEGMEN =           0.0000
    TS         GW IRRIGA =           0.0000      TS         GW IRRIGA =           0.0000
    TION         SW IRRI =      848819.6875      TION         SW IRRI =           0.0000
    GATION      SYSTEM L =           0.0000      GATION      SYSTEM L =           0.0000
    OSSES GW      SYSTEM =           0.0000      OSSES GW      SYSTEM =           0.0000

               TOTAL OUT =      848819.6875                 TOTAL OUT =           0.0000

                IN - OUT =         -17.0000                  IN - OUT =           0.0000

     PERCENT DISCREPANCY =          -0.00         PERCENT DISCREPANCY =           0.00



1
  VOLUMETRIC BUDGET FOR ENTIRE MODEL AT END OF TIME STEP   30, STRESS PERIOD  29
  ------------------------------------------------------------------------------

     CUMULATIVE VOLUMES      L**3       RATES FOR THIS TIME STEP      L**3/T
     ------------------                 ------------------------

           IN:                                      IN:
           ---                                      ---
             STORAGE     =    39804680.0000               STORAGE     =           0.1389
       CONSTANT HEAD     =           0.0000         CONSTANT HEAD     =           0.0000
     HEAD DEP BOUNDS     =    21059706.0000       HEAD DEP BOUNDS     =           0.2856
      STREAM LEAKAGE     =   876136832.0000        STREAM LEAKAGE     =          12.0379
        UZF RECHARGE     =     1252507.1250          UZF RECHARGE     =           0.0000
               GW ET     =           0.0000                 GW ET     =           0.0000
     SURFACE LEAKAGE     =           0.0000       SURFACE LEAKAGE     =           0.0000
           AG WELLS      =           0.0000             AG WELLS      =           0.0000

                TOTAL IN =   938253696.0000                  TOTAL IN =          12.4623

          OUT:                                     OUT:
          ----                                     ----
             STORAGE     =   112134184.0000               STORAGE     =           1.9583
       CONSTANT HEAD     =           0.0000         CONSTANT HEAD     =           0.0000
     HEAD DEP BOUNDS     =    21536082.0000       HEAD DEP BOUNDS     =           0.2914
      STREAM LEAKAGE     =   795063488.0000        STREAM LEAKAGE     =          10.2126
        UZF RECHARGE     =           0.0000          UZF RECHARGE     =           0.0000
               GW ET     =     9533804.0000                 GW ET     =           0.0000
     SURFACE LEAKAGE     =           0.0000       SURFACE LEAKAGE     =           0.0000
           AG WELLS      =           0.0000             AG WELLS      =           0.0000

               TOTAL OUT =   938267584.0000                 TOTAL OUT =          12.4623

                IN - OUT =      -13888.0000                  IN - OUT =       1.4305E-05

     PERCENT DISCREPANCY =          -0.00         PERCENT DISCREPANCY =           0.00






         TIME SUMMARY AT END OF TIME STEP   30 IN STRESS PERIOD   29
                    SECONDS     MINUTES      HOURS       DAYS        YEARS
                    -----------------------------------------------------------
   TIME STEP LENGTH  87667.      1461.1      24.352      1.0147     2.77799E-03
 STRESS PERIOD TIME 2.63000E+06  43833.      730.56      30.440     8.33397E-02
         TOTAL TIME 7.37266E+07 1.22878E+06  20480.      853.32      2.3363    
1
1
                            STRESS PERIOD NO.   30, LENGTH =   2630000.    
                            -----------------------------------------------

                              NUMBER OF TIME STEPS =    30

                               MULTIPLIER FOR DELT =     1.000

                            INITIAL TIME STEP SIZE =   87666.66    

 REUSING NON-PARAMETER GHB CELLS FROM LAST STRESS PERIOD

      2 GHB CELLS

 REUSING STREAM SEGMENT DATA FROM LAST STRESS PERIOD



            AREAL INFILTRATION RATE
 READING ON UNIT   19 WITH FORMAT: (10F4.0)            

            1           2           3           4           5           6           7           8           9          10
 ........................................................................................................................
   1   1.2000E-09   0.000       0.000       0.000       0.000       0.000       0.000       0.000       0.000       0.000    
   2   2.1000E-09  2.0000E-09  8.0000E-10  8.5000E-09   0.000       0.000       0.000       0.000       0.000       0.000    
   3   5.0000E-10  1.1000E-09  8.8000E-09  5.5000E-09   0.000       0.000       0.000       0.000       0.000       0.000    
   4   8.5000E-09  1.1000E-09  1.1000E-09  1.1000E-09  2.0000E-09   0.000       0.000       0.000       0.000       0.000    
   5   8.5000E-09  1.1000E-09  1.1000E-09  1.1000E-09  1.1000E-09   0.000       0.000       0.000       0.000       0.000    
   6   8.5000E-09  5.2000E-09  2.1000E-09  1.1000E-09  1.5000E-09   0.000       0.000       0.000       0.000       0.000    
   7   8.5000E-09  5.2000E-09  2.1000E-09  1.2000E-09  2.0000E-09   0.000       0.000       0.000       0.000       0.000    
   8   5.0000E-10  5.2000E-09  2.1000E-09  1.2000E-09  5.0000E-09   0.000       0.000       0.000       0.000       0.000    
   9   5.0000E-10  5.2000E-09  2.1000E-09  1.2000E-09  5.0000E-09   0.000       0.000       0.000       0.000       0.000    
  10   5.0000E-10  5.2000E-09  2.1000E-09  1.2000E-09  5.8000E-09   0.000       0.000       0.000       0.000       0.000    
  11   1.0000E-10  1.1000E-09  1.1000E-09  1.2000E-09  5.0000E-09   0.000       0.000       0.000       0.000       0.000    
  12   1.1000E-09  1.1000E-09  1.1000E-09  1.1000E-09  2.0000E-09   0.000       0.000       0.000       0.000       0.000    
  13   1.1000E-09  2.2000E-09  2.2000E-09  2.1000E-09  1.0000E-09   0.000       0.000       0.000       0.000       0.000    
  14   2.0000E-10  5.5000E-09  5.5000E-09  5.2000E-09  1.0000E-09   0.000       0.000       0.000       0.000       0.000    
  15    0.000      8.8000E-09  8.8000E-09   0.000       0.000       0.000       0.000       0.000       0.000       0.000    

                  ET RATE =  5.000000E-08

 USING ET EXTINCTION DEPTH FROM PREVIOUS STRESS PERIOD. CURRENT PERIOD IS:      30

 USING EXTINCTION WATER CONTENT FROM PREVIOUS STRESS PERIOD. CURRENT PERIOD IS:      30

 USING AIR ENTRY PRESSURE FROM PREVIOUS STRESS PERIOD. CURRENT PERIOD IS:      30

 USING ROOT PRESSURE HEAD FROM PREVIOUS STRESS PERIOD. CURRENT PERIOD IS:      30

 USING ROOT ACTIVITY FROM PREVIOUS STRESS PERIOD. CURRENT PERIOD IS:      30

 PROCESSING AG STRESS PERIOD DATA

 READING AG STRESS PERIOD DATA

 READING IRRIGATION SEGMENT

 READING IRRIGATION WELL

 READING SUPPLEMENTAL WELL

 END PROCESSING AG STRESS PERIOD DATA OPTIONS
 
 SOLVING FOR HEAD 
                                                   Max.-Head-Change                         Max.-Flux-Residual
  Residual-Control   Outer-Iter.   Inner-Iter.     Column Row Layer    Maximum-Head-Change  Column Row Layer    Maximum-Flux-Residual          L2-NORM 
          0                 1           2             4   13     1       0.1881413899E-01       4   13    1         0.1086645067E+01      0.1942996395E+01
          0                 2           2             4   13     1      -0.1810628070E-02       4   13    1        -0.1075261882E+00      0.1887139646E+00
          0                 3           1             4   13     1       0.1214726218E-03       4   13    1         0.7417116122E-02      0.1268875731E-01
          0                 4           1             4   13     1      -0.4717194664E-05       4   13    1        -0.2961715300E-03      0.4858302420E-03

    ------------------------------------------------
       NWT REQUIRED            4 OUTER ITERATIONS 
       AND A TOTAL OF          6 INNER ITERATIONS.
    ------------------------------------------------

 NO OUTPUT CONTROL FOR STRESS PERIOD   30   TIME STEP    1
 
 SOLVING FOR HEAD 
                                                   Max.-Head-Change                         Max.-Flux-Residual
  Residual-Control   Outer-Iter.   Inner-Iter.     Column Row Layer    Maximum-Head-Change  Column Row Layer    Maximum-Flux-Residual          L2-NORM 
          0                 1           2             4   13     1       0.1694178912E-01       4   13    1         0.9779703236E+00      0.1793709191E+01
          0                 2           2             3   13     1      -0.1708204049E-02       3   13    1        -0.1040025649E+00      0.1845790923E+00
          0                 3           2             3   13     1       0.1117360914E-03       3   13    1         0.7025433520E-02      0.1095392516E-01
          0                 4           1             3   13     1      -0.4271525707E-05       3   13    1        -0.2761535525E-03      0.4234229063E-03

    ------------------------------------------------
       NWT REQUIRED            4 OUTER ITERATIONS 
       AND A TOTAL OF          7 INNER ITERATIONS.
    ------------------------------------------------

 NO OUTPUT CONTROL FOR STRESS PERIOD   30   TIME STEP    2
 
 SOLVING FOR HEAD 
                                                   Max.-Head-Change                         Max.-Flux-Residual
  Residual-Control   Outer-Iter.   Inner-Iter.     Column Row Layer    Maximum-Head-Change  Column Row Layer    Maximum-Flux-Residual          L2-NORM 
          0                 1           2             2   13     1       0.1525781927E-01       4   13    1         0.8805161603E+00      0.1652518537E+01
          0                 2           2             4   13     1      -0.1948541668E-02       4   13    1        -0.1202940722E+00      0.1808703936E+00
          0                 3           1             4   13     1       0.1308284638E-03       4   13    1         0.8304249905E-02      0.1220142387E-01
          0                 4           1             4   13     1      -0.5094463090E-05       4   13    1        -0.3324947756E-03      0.4708081731E-03

    ------------------------------------------------
       NWT REQUIRED            4 OUTER ITERATIONS 
       AND A TOTAL OF          6 INNER ITERATIONS.
    ------------------------------------------------

 NO OUTPUT CONTROL FOR STRESS PERIOD   30   TIME STEP    3
 
 SOLVING FOR HEAD 
                                                   Max.-Head-Change                         Max.-Flux-Residual
  Residual-Control   Outer-Iter.   Inner-Iter.     Column Row Layer    Maximum-Head-Change  Column Row Layer    Maximum-Flux-Residual          L2-NORM 
          0                 1           2             2   13     1       0.1403233943E-01       2   13    1         0.7951985596E+00      0.1506424470E+01
          0                 2           2             2   13     1      -0.1304253099E-02       2   13    1        -0.7597882475E-01      0.1467098380E+00
          0                 3           1             2   13     1       0.8321040765E-04       4   13    1         0.5239660348E-02      0.9902841287E-02

    ------------------------------------------------
       NWT REQUIRED            3 OUTER ITERATIONS 
       AND A TOTAL OF          5 INNER ITERATIONS.
    ------------------------------------------------

 NO OUTPUT CONTROL FOR STRESS PERIOD   30   TIME STEP    4
 
 SOLVING FOR HEAD 
                                                   Max.-Head-Change                         Max.-Flux-Residual
  Residual-Control   Outer-Iter.   Inner-Iter.     Column Row Layer    Maximum-Head-Change  Column Row Layer    Maximum-Flux-Residual          L2-NORM 
          0                 1           2             2   13     1       0.1290123750E-01       2   13    1         0.7311975605E+00      0.1378088713E+01
          0                 2           2             2   13     1      -0.1201230924E-02       2   13    1        -0.6998708426E-01      0.1343339696E+00
          0                 3           1             2   13     1       0.7684209674E-04       2   13    1         0.4601743060E-02      0.9078038393E-02

    ------------------------------------------------
       NWT REQUIRED            3 OUTER ITERATIONS 
       AND A TOTAL OF          5 INNER ITERATIONS.
    ------------------------------------------------

 NO OUTPUT CONTROL FOR STRESS PERIOD   30   TIME STEP    5
 
 SOLVING FOR HEAD 
                                                   Max.-Head-Change                         Max.-Flux-Residual
  Residual-Control   Outer-Iter.   Inner-Iter.     Column Row Layer    Maximum-Head-Change  Column Row Layer    Maximum-Flux-Residual          L2-NORM 
          0                 1           2             2   13     1       0.1185817510E-01       2   13    1         0.6721544559E+00      0.1266785794E+01
          0                 2           2             2   13     1      -0.1105891704E-02       2   13    1        -0.6443974383E-01      0.1236165352E+00
          0                 3           1             2   13     1       0.7091772749E-04       2   13    1         0.4247467393E-02      0.8368092353E-02

    ------------------------------------------------
       NWT REQUIRED            3 OUTER ITERATIONS 
       AND A TOTAL OF          5 INNER ITERATIONS.
    ------------------------------------------------

 NO OUTPUT CONTROL FOR STRESS PERIOD   30   TIME STEP    6
 
 SOLVING FOR HEAD 
                                                   Max.-Head-Change                         Max.-Flux-Residual
  Residual-Control   Outer-Iter.   Inner-Iter.     Column Row Layer    Maximum-Head-Change  Column Row Layer    Maximum-Flux-Residual          L2-NORM 
          0                 1           2             2   13     1       0.1089692817E-01       2   13    1         0.6177227634E+00      0.1170271071E+01
          0                 2           2             2   13     1      -0.1017771111E-02       2   13    1        -0.5931049608E-01      0.1143322351E+00
          0                 3           1             2   13     1       0.6541420628E-04       2   13    1         0.3918265219E-02      0.7750957667E-02

    ------------------------------------------------
       NWT REQUIRED            3 OUTER ITERATIONS 
       AND A TOTAL OF          5 INNER ITERATIONS.
    ------------------------------------------------

 NO OUTPUT CONTROL FOR STRESS PERIOD   30   TIME STEP    7
 
 SOLVING FOR HEAD 
                                                   Max.-Head-Change                         Max.-Flux-Residual
  Residual-Control   Outer-Iter.   Inner-Iter.     Column Row Layer    Maximum-Head-Change  Column Row Layer    Maximum-Flux-Residual          L2-NORM 
          0                 1           2             2   13     1       0.1001165319E-01       2   13    1         0.5675765137E+00      0.1086586410E+01
          0                 2           2             2   13     1      -0.9363713662E-03       2   13    1        -0.5457074223E-01      0.1062949428E+00
          0                 3           1             2   13     1       0.6030472642E-04       2   13    1         0.3612482024E-02      0.7220504796E-02

    ------------------------------------------------
       NWT REQUIRED            3 OUTER ITERATIONS 
       AND A TOTAL OF          5 INNER ITERATIONS.
    ------------------------------------------------

 NO OUTPUT CONTROL FOR STRESS PERIOD   30   TIME STEP    8
 
 SOLVING FOR HEAD 
                                                   Max.-Head-Change                         Max.-Flux-Residual
  Residual-Control   Outer-Iter.   Inner-Iter.     Column Row Layer    Maximum-Head-Change  Column Row Layer    Maximum-Flux-Residual          L2-NORM 
          0                 1           2             2   13     1       0.9196790360E-02       2   13    1         0.5214049388E+00      0.1014027144E+01
          0                 2           2             2   13     1      -0.8612635769E-03       2   13    1        -0.5019600696E-01      0.9933240265E-01
          0                 3           1             2   13     1       0.5557237690E-04       2   13    1         0.3329190210E-02      0.6759556540E-02

    ------------------------------------------------
       NWT REQUIRED            3 OUTER ITERATIONS 
       AND A TOTAL OF          5 INNER ITERATIONS.
    ------------------------------------------------

 NO OUTPUT CONTROL FOR STRESS PERIOD   30   TIME STEP    9
 
 SOLVING FOR HEAD 
                                                   Max.-Head-Change                         Max.-Flux-Residual
  Residual-Control   Outer-Iter.   Inner-Iter.     Column Row Layer    Maximum-Head-Change  Column Row Layer    Maximum-Flux-Residual          L2-NORM 
          0                 1           2             2   13     1       0.8447024836E-02       2   13    1         0.4789103778E+00      0.9510967638E+00
          0                 2           2             2   13     1      -0.7919513317E-03       2   13    1        -0.4615765135E-01      0.9330063705E-01
          0                 3           1             2   13     1       0.5118745664E-04       2   13    1         0.3066589175E-02      0.6362568716E-02

    ------------------------------------------------
       NWT REQUIRED            3 OUTER ITERATIONS 
       AND A TOTAL OF          5 INNER ITERATIONS.
    ------------------------------------------------

 NO OUTPUT CONTROL FOR STRESS PERIOD   30   TIME STEP   10
 
 SOLVING FOR HEAD 
                                                   Max.-Head-Change                         Max.-Flux-Residual
  Residual-Control   Outer-Iter.   Inner-Iter.     Column Row Layer    Maximum-Head-Change  Column Row Layer    Maximum-Flux-Residual          L2-NORM 
          0                 1           2             2   13     1       0.7757568853E-02       2   13    1         0.4398244700E+00      0.8964987521E+00
          0                 2           2             2   13     1      -0.7280973841E-03       2   13    1        -0.4243639584E-01      0.8807202033E-01
          0                 3           1             2   13     1       0.4713529155E-04       2   13    1         0.2823864070E-02      0.6017924746E-02

    ------------------------------------------------
       NWT REQUIRED            3 OUTER ITERATIONS 
       AND A TOTAL OF          5 INNER ITERATIONS.
    ------------------------------------------------

 NO OUTPUT CONTROL FOR STRESS PERIOD   30   TIME STEP   11
 
 SOLVING FOR HEAD 
                                                   Max.-Head-Change                         Max.-Flux-Residual
  Residual-Control   Outer-Iter.   Inner-Iter.     Column Row Layer    Maximum-Head-Change  Column Row Layer    Maximum-Flux-Residual          L2-NORM 
          0                 1           2             2   13     1       0.7123791908E-02       2   13    1         0.4038872111E+00      0.8490981343E+00
          0                 2           2             2   13     1      -0.6692748461E-03       2   13    1        -0.3900756130E-01      0.8353717224E-01
          0                 3           1             2   13     1       0.4339547104E-04       2   13    1         0.2599803264E-02      0.5719307753E-02

    ------------------------------------------------
       NWT REQUIRED            3 OUTER ITERATIONS 
       AND A TOTAL OF          5 INNER ITERATIONS.
    ------------------------------------------------

 NO OUTPUT CONTROL FOR STRESS PERIOD   30   TIME STEP   12
 
 SOLVING FOR HEAD 
                                                   Max.-Head-Change                         Max.-Flux-Residual
  Residual-Control   Outer-Iter.   Inner-Iter.     Column Row Layer    Maximum-Head-Change  Column Row Layer    Maximum-Flux-Residual          L2-NORM 
          0                 1           2             2   13     1       0.6541453161E-02       2   13    1         0.3708602778E+00      0.8079066087E+00
          0                 2           2             2   13     1      -0.6151014333E-03       2   13    1        -0.3584908799E-01      0.7959731001E-01
          0                 3           1             2   13     1       0.3992392086E-04       2   13    1         0.2391739933E-02      0.5460625453E-02

    ------------------------------------------------
       NWT REQUIRED            3 OUTER ITERATIONS 
       AND A TOTAL OF          5 INNER ITERATIONS.
    ------------------------------------------------

 NO OUTPUT CONTROL FOR STRESS PERIOD   30   TIME STEP   13
 
 SOLVING FOR HEAD 
                                                   Max.-Head-Change                         Max.-Flux-Residual
  Residual-Control   Outer-Iter.   Inner-Iter.     Column Row Layer    Maximum-Head-Change  Column Row Layer    Maximum-Flux-Residual          L2-NORM 
          0                 1           2             2   13     1       0.6006540045E-02       2   13    1         0.3405178332E+00      0.7720617330E+00
          0                 2           2             2   13     1      -0.5652352314E-03       2   13    1        -0.3294275626E-01      0.7368914768E-01
          0                 3           1             2   13     1       0.3730751335E-04       2   13    1         0.2234971364E-02      0.5094974368E-02

    ------------------------------------------------
       NWT REQUIRED            3 OUTER ITERATIONS 
       AND A TOTAL OF          5 INNER ITERATIONS.
    ------------------------------------------------

 NO OUTPUT CONTROL FOR STRESS PERIOD   30   TIME STEP   14
 
 SOLVING FOR HEAD 
                                                   Max.-Head-Change                         Max.-Flux-Residual
  Residual-Control   Outer-Iter.   Inner-Iter.     Column Row Layer    Maximum-Head-Change  Column Row Layer    Maximum-Flux-Residual          L2-NORM 
          0                 1           2             2   13     1       0.5515816781E-02       2   13    1         0.3126766923E+00      0.7404643124E+00
          0                 2           2             2    2     1      -0.5233513971E-03       2   13    1        -0.3027474396E-01      0.7142854856E-01
          0                 3           1             2    2     1       0.3563827782E-04       2   13    1         0.2063749158E-02      0.4938621678E-02

    ------------------------------------------------
       NWT REQUIRED            3 OUTER ITERATIONS 
       AND A TOTAL OF          5 INNER ITERATIONS.
    ------------------------------------------------

 NO OUTPUT CONTROL FOR STRESS PERIOD   30   TIME STEP   15
 
 SOLVING FOR HEAD 
                                                   Max.-Head-Change                         Max.-Flux-Residual
  Residual-Control   Outer-Iter.   Inner-Iter.     Column Row Layer    Maximum-Head-Change  Column Row Layer    Maximum-Flux-Residual          L2-NORM 
          0                 1           2             2    2     1       0.5350384259E-02       2   13    1         0.2871219765E+00      0.7127430020E+00
          0                 2           2             2    2     1      -0.5204477040E-03       2    2    1        -0.2791497852E-01      0.6898690282E-01
          0                 3           1             2    2     1       0.3544054748E-04       2    2    1         0.1954048582E-02      0.4669516218E-02

    ------------------------------------------------
       NWT REQUIRED            3 OUTER ITERATIONS 
       AND A TOTAL OF          5 INNER ITERATIONS.
    ------------------------------------------------

 NO OUTPUT CONTROL FOR STRESS PERIOD   30   TIME STEP   16
 
 SOLVING FOR HEAD 
                                                   Max.-Head-Change                         Max.-Flux-Residual
  Residual-Control   Outer-Iter.   Inner-Iter.     Column Row Layer    Maximum-Head-Change  Column Row Layer    Maximum-Flux-Residual          L2-NORM 
          0                 1           2             2    2     1       0.5320780482E-02       2    2    1         0.2775920719E+00      0.6886487474E+00
          0                 2           2             2    2     1      -0.5175680442E-03       2    2    1        -0.2775928634E-01      0.6593556785E-01
          0                 3           1             2    2     1       0.3524445350E-04       2    2    1         0.1943150137E-02      0.4580478288E-02

    ------------------------------------------------
       NWT REQUIRED            3 OUTER ITERATIONS 
       AND A TOTAL OF          5 INNER ITERATIONS.
    ------------------------------------------------

 NO OUTPUT CONTROL FOR STRESS PERIOD   30   TIME STEP   17
 
 SOLVING FOR HEAD 
                                                   Max.-Head-Change                         Max.-Flux-Residual
  Residual-Control   Outer-Iter.   Inner-Iter.     Column Row Layer    Maximum-Head-Change  Column Row Layer    Maximum-Flux-Residual          L2-NORM 
          0                 1           2             2    2     1       0.5291682082E-02       2    2    1         0.2760617398E+00      0.6674123790E+00
          0                 2           2             2    2     1      -0.5147375440E-03       2    2    1        -0.2760625187E-01      0.6441534410E-01
          0                 3           1             2    2     1       0.3505170655E-04       2    2    1         0.1932437708E-02      0.4478736995E-02

    ------------------------------------------------
       NWT REQUIRED            3 OUTER ITERATIONS 
       AND A TOTAL OF          5 INNER ITERATIONS.
    ------------------------------------------------

 NO OUTPUT CONTROL FOR STRESS PERIOD   30   TIME STEP   18
 
 SOLVING FOR HEAD 
                                                   Max.-Head-Change                         Max.-Flux-Residual
  Residual-Control   Outer-Iter.   Inner-Iter.     Column Row Layer    Maximum-Head-Change  Column Row Layer    Maximum-Flux-Residual          L2-NORM 
          0                 1           2             2    2     1       0.5262906361E-02       2    2    1         0.2745484329E+00      0.6487640190E+00
          0                 2           2             2    2     1      -0.5119384326E-03       2    2    1        -0.2745491994E-01      0.6303027322E-01
          0                 3           1             2    2     1       0.3486109818E-04       2    2    1         0.1921844506E-02      0.4386831479E-02

    ------------------------------------------------
       NWT REQUIRED            3 OUTER ITERATIONS 
       AND A TOTAL OF          5 INNER ITERATIONS.
    ------------------------------------------------

 NO OUTPUT CONTROL FOR STRESS PERIOD   30   TIME STEP   19
 
 SOLVING FOR HEAD 
                                                   Max.-Head-Change                         Max.-Flux-Residual
  Residual-Control   Outer-Iter.   Inner-Iter.     Column Row Layer    Maximum-Head-Change  Column Row Layer    Maximum-Flux-Residual          L2-NORM 
          0                 1           2             2    2     1       0.5234622541E-02       2    2    1         0.2730610349E+00      0.6324706663E+00
          0                 2           2             2    2     1      -0.5091871700E-03       2    2    1        -0.2730617895E-01      0.6177639482E-01
          0                 3           1             2    2     1       0.3467374738E-04       2    2    1         0.1911432639E-02      0.4301655430E-02

    ------------------------------------------------
       NWT REQUIRED            3 OUTER ITERATIONS 
       AND A TOTAL OF          5 INNER ITERATIONS.
    ------------------------------------------------

 NO OUTPUT CONTROL FOR STRESS PERIOD   30   TIME STEP   20
 
 SOLVING FOR HEAD 
                                                   Max.-Head-Change                         Max.-Flux-Residual
  Residual-Control   Outer-Iter.   Inner-Iter.     Column Row Layer    Maximum-Head-Change  Column Row Layer    Maximum-Flux-Residual          L2-NORM 
          0                 1           2             2    2     1       0.5206648168E-02       2    2    1         0.2715899627E+00      0.6181569290E+00
          0                 2           2             2    2     1      -0.5064660077E-03       2    2    1        -0.2715907051E-01      0.6063976114E-01
          0                 3           1             2    2     1       0.3448844665E-04       2    2    1         0.1901135048E-02      0.4225158686E-02

    ------------------------------------------------
       NWT REQUIRED            3 OUTER ITERATIONS 
       AND A TOTAL OF          5 INNER ITERATIONS.
    ------------------------------------------------

 NO OUTPUT CONTROL FOR STRESS PERIOD   30   TIME STEP   21
 
 SOLVING FOR HEAD 
                                                   Max.-Head-Change                         Max.-Flux-Residual
  Residual-Control   Outer-Iter.   Inner-Iter.     Column Row Layer    Maximum-Head-Change  Column Row Layer    Maximum-Flux-Residual          L2-NORM 
          0                 1           2             2    2     1       0.5178977517E-02       2    2    1         0.2701349347E+00      0.6055166425E+00
          0                 2           2             2    2     1      -0.5037743910E-03       2    2    1        -0.2701356659E-01      0.5960695877E-01
          0                 3           1             2    2     1       0.3430515740E-04       2    2    1         0.1890949789E-02      0.4155225277E-02

    ------------------------------------------------
       NWT REQUIRED            3 OUTER ITERATIONS 
       AND A TOTAL OF          5 INNER ITERATIONS.
    ------------------------------------------------

 NO OUTPUT CONTROL FOR STRESS PERIOD   30   TIME STEP   22
 
 SOLVING FOR HEAD 
                                                   Max.-Head-Change                         Max.-Flux-Residual
  Residual-Control   Outer-Iter.   Inner-Iter.     Column Row Layer    Maximum-Head-Change  Column Row Layer    Maximum-Flux-Residual          L2-NORM 
          0                 1           2             2    2     1       0.5151780951E-02       2    2    1         0.2687048338E+00      0.5943169190E+00
          0                 2           2             2    2     1      -0.5011288894E-03       2    2    1        -0.2687055535E-01      0.5866943193E-01
          0                 3           1             2    2     1       0.3412500881E-04       2    2    1         0.1880938996E-02      0.4092033807E-02

    ------------------------------------------------
       NWT REQUIRED            3 OUTER ITERATIONS 
       AND A TOTAL OF          5 INNER ITERATIONS.
    ------------------------------------------------

 NO OUTPUT CONTROL FOR STRESS PERIOD   30   TIME STEP   23
 
 SOLVING FOR HEAD 
                                                   Max.-Head-Change                         Max.-Flux-Residual
  Residual-Control   Outer-Iter.   Inner-Iter.     Column Row Layer    Maximum-Head-Change  Column Row Layer    Maximum-Flux-Residual          L2-NORM 
          0                 1           2             2    2     1       0.5124875536E-02       2    2    1         0.2672901339E+00      0.5843365926E+00
          0                 2           2             2    2     1      -0.4985117096E-03       2    2    1        -0.2672908425E-01      0.5781552951E-01
          0                 3           1             2    2     1       0.3394678910E-04       2    2    1         0.1871036046E-02      0.4034087341E-02

    ------------------------------------------------
       NWT REQUIRED            3 OUTER ITERATIONS 
       AND A TOTAL OF          5 INNER ITERATIONS.
    ------------------------------------------------

 NO OUTPUT CONTROL FOR STRESS PERIOD   30   TIME STEP   24
 
 SOLVING FOR HEAD 
                                                   Max.-Head-Change                         Max.-Flux-Residual
  Residual-Control   Outer-Iter.   Inner-Iter.     Column Row Layer    Maximum-Head-Change  Column Row Layer    Maximum-Flux-Residual          L2-NORM 
          0                 1           2             2    2     1       0.5098431842E-02       2    2    1         0.2658997099E+00      0.5754053090E+00
          0                 2           2             2    2     1      -0.4959394429E-03       2    2    1        -0.2659004078E-01      0.5702228266E-01
          0                 3           1             2    2     1       0.3377162721E-04       2    2    1         0.1861302990E-02      0.3997260336E-02

    ------------------------------------------------
       NWT REQUIRED            3 OUTER ITERATIONS 
       AND A TOTAL OF          5 INNER ITERATIONS.
    ------------------------------------------------

 NO OUTPUT CONTROL FOR STRESS PERIOD   30   TIME STEP   25
 
 SOLVING FOR HEAD 
                                                   Max.-Head-Change                         Max.-Flux-Residual
  Residual-Control   Outer-Iter.   Inner-Iter.     Column Row Layer    Maximum-Head-Change  Column Row Layer    Maximum-Flux-Residual          L2-NORM 
          0                 1           2             2    2     1       0.5072267881E-02       2    2    1         0.2645240453E+00      0.5673753440E+00
          0                 2           2             2    2     1      -0.4933943869E-03       2    2    1        -0.2645247325E-01      0.5632410086E-01
          0                 3           1             2    2     1       0.3359831871E-04       2    2    1         0.1851673287E-02      0.3932772369E-02

    ------------------------------------------------
       NWT REQUIRED            3 OUTER ITERATIONS 
       AND A TOTAL OF          5 INNER ITERATIONS.
    ------------------------------------------------

 NO OUTPUT CONTROL FOR STRESS PERIOD   30   TIME STEP   26
 
 SOLVING FOR HEAD 
                                                   Max.-Head-Change                         Max.-Flux-Residual
  Residual-Control   Outer-Iter.   Inner-Iter.     Column Row Layer    Maximum-Head-Change  Column Row Layer    Maximum-Flux-Residual          L2-NORM 
          0                 1           2             2    2     1       0.5046378494E-02       2    2    1         0.2631628842E+00      0.5601404520E+00
          0                 2           2             2    2     1      -0.4908760395E-03       2    2    1        -0.2631635609E-01      0.5567282998E-01
          0                 3           1             2    2     1       0.3342682857E-04       2    2    1         0.1842145085E-02      0.3888247035E-02

    ------------------------------------------------
       NWT REQUIRED            3 OUTER ITERATIONS 
       AND A TOTAL OF          5 INNER ITERATIONS.
    ------------------------------------------------

 NO OUTPUT CONTROL FOR STRESS PERIOD   30   TIME STEP   27
 
 SOLVING FOR HEAD 
                                                   Max.-Head-Change                         Max.-Flux-Residual
  Residual-Control   Outer-Iter.   Inner-Iter.     Column Row Layer    Maximum-Head-Change  Column Row Layer    Maximum-Flux-Residual          L2-NORM 
          0                 1           2             2    2     1       0.5020934151E-02       2    2    1         0.2618251404E+00      0.5535846441E+00
          0                 2           2             2    2     1      -0.4884009831E-03       2    2    1        -0.2618258070E-01      0.5507516134E-01
          0                 3           1             2    2     1       0.3325828643E-04       2    2    1         0.1832780799E-02      0.3847188132E-02

    ------------------------------------------------
       NWT REQUIRED            3 OUTER ITERATIONS 
       AND A TOTAL OF          5 INNER ITERATIONS.
    ------------------------------------------------

 NO OUTPUT CONTROL FOR STRESS PERIOD   30   TIME STEP   28
 
 SOLVING FOR HEAD 
                                                   Max.-Head-Change                         Max.-Flux-Residual
  Residual-Control   Outer-Iter.   Inner-Iter.     Column Row Layer    Maximum-Head-Change  Column Row Layer    Maximum-Flux-Residual          L2-NORM 
          0                 1           2             2    2     1       0.4995753145E-02       2    2    1         0.2605012904E+00      0.5476180805E+00
          0                 2           2             2    2     1      -0.4859515432E-03       2    2    1        -0.2605019471E-01      0.5452554913E-01
          0                 3           1             2    2     1       0.3309148881E-04       2    2    1         0.1823513794E-02      0.3809965683E-02

    ------------------------------------------------
       NWT REQUIRED            3 OUTER ITERATIONS 
       AND A TOTAL OF          5 INNER ITERATIONS.
    ------------------------------------------------

 NO OUTPUT CONTROL FOR STRESS PERIOD   30   TIME STEP   29
 
 SOLVING FOR HEAD 
                                                   Max.-Head-Change                         Max.-Flux-Residual
  Residual-Control   Outer-Iter.   Inner-Iter.     Column Row Layer    Maximum-Head-Change  Column Row Layer    Maximum-Flux-Residual          L2-NORM 
          0                 1           2             2    2     1       0.4971006187E-02       2    2    1         0.2592002758E+00      0.5421803889E+00
          0                 2           2             2    2     1      -0.4835443238E-03       2    2    1        -0.2592009225E-01      0.5402003110E-01
          0                 3           1             2    2     1       0.3292756607E-04       2    2    1         0.1814406622E-02      0.3775797804E-02

    ------------------------------------------------
       NWT REQUIRED            3 OUTER ITERATIONS 
       AND A TOTAL OF          5 INNER ITERATIONS.
    ------------------------------------------------

 NO OUTPUT CONTROL FOR STRESS PERIOD   30   TIME STEP   30



 STREAM LISTING     PERIOD     30   STEP       30

 LAYER ROW COL. STREAM  RCH.  FLOW INTO     FLOW TO   FLOW OUT OF   OVRLND.     DIRECT     STREAM       STREAM     STREAM     STREAM   STREAMBED  STREAMBED
                SEG.NO.  NO.  STRM. RCH.    AQUIFER    STRM. RCH.    RUNOFF     PRECIP       ET          HEAD       DEPTH      WIDTH   CONDCTNC.   GRADIENT

   1    1    1     1     1    7.4248E+01  4.1988E-01   7.3828E+01  0.000E+00  0.000E+00  0.000E+00  1.09474E+03  1.690E+00  1.990E+01  8.954E-02  1.563E+00
   1    2    2     1     2    7.3828E+01  6.5043E-01   7.3177E+01  0.000E+00  0.000E+00  0.000E+00  1.08974E+03  1.684E+00  1.984E+01  1.389E-01  1.561E+00
   1    3    3     1     3    7.3177E+01  5.5489E-01   7.2623E+01  0.000E+00  0.000E+00  0.000E+00  1.08410E+03  1.677E+00  1.977E+01  1.186E-01  1.559E+00
   1    3    4     1     4    7.2623E+01  5.1112E-01   7.2111E+01  0.000E+00  0.000E+00  0.000E+00  1.07908E+03  1.671E+00  1.972E+01  1.094E-01  1.557E+00
   1    4    5     2     1    7.0111E+01  4.0856E-01   6.9703E+01  0.000E+00  0.000E+00  0.000E+00  1.07417E+03  2.238E+00  1.200E+01  7.800E-02  1.746E+00
   1    5    6     2     2    6.9703E+01  3.1386E-01   6.9389E+01  0.000E+00  0.000E+00  0.000E+00  1.06874E+03  2.231E+00  1.200E+01  6.000E-02  1.744E+00
   1    6    6     2     3    6.9389E+01  3.1350E-01   6.9075E+01  0.000E+00  0.000E+00  0.000E+00  1.06402E+03  2.225E+00  1.200E+01  6.000E-02  1.742E+00
   1    7    6     2     4    6.9075E+01  3.1314E-01   6.8762E+01  0.000E+00  0.000E+00  0.000E+00  1.05929E+03  2.219E+00  1.200E+01  6.000E-02  1.740E+00
   1    8    6     2     5    6.8762E+01  3.1277E-01   6.8450E+01  0.000E+00  0.000E+00  0.000E+00  1.05457E+03  2.213E+00  1.200E+01  6.000E-02  1.738E+00
   1    3    5     3     1    2.0000E+00  2.8252E-01   1.7175E+00  0.000E+00  0.000E+00  0.000E+00  1.07555E+03  1.909E+00  9.636E+00  7.227E-02  1.955E+00
   1    3    6     3     2    1.7175E+00  2.4905E-01   1.4684E+00  0.000E+00  0.000E+00  0.000E+00  1.07264E+03  1.727E+00  8.909E+00  6.682E-02  1.864E+00
   1    3    7     3     3    1.4684E+00  1.9718E-01   1.2712E+00  0.000E+00  0.000E+00  0.000E+00  1.06987E+03  1.555E+00  8.218E+00  5.547E-02  1.777E+00
   1    4    8     3     4    1.2712E+00  2.2567E-01   1.0456E+00  0.000E+00  0.000E+00  0.000E+00  1.06682E+03  1.364E+00  7.455E+00  6.709E-02  1.682E+00
   1    5    8     3     5    1.0456E+00  1.5790E-01   8.8768E-01  0.000E+00  0.000E+00  0.000E+00  1.06362E+03  1.164E+00  6.655E+00  4.991E-02  1.582E+00
   1    6    8     3     6    8.8768E-01  5.5980E-02   8.3170E-01  0.000E+00  0.000E+00  0.000E+00  1.06158E+03  1.036E+00  6.145E+00  1.844E-02  1.518E+00
   1    5   10     4     1    1.0000E+01  9.0919E-02   9.9091E+00  0.000E+00  0.000E+00  0.000E+00  1.07836E+03  6.368E-01  1.000E+01  2.500E-02  1.212E+00
   1    5    9     4     2    9.9091E+00  1.8158E-01   9.7275E+00  0.000E+00  0.000E+00  0.000E+00  1.07154E+03  6.315E-01  1.000E+01  5.000E-02  1.211E+00
   1    6    8     4     3    9.7275E+00  1.2689E-01   9.6006E+00  0.000E+00  0.000E+00  0.000E+00  1.06381E+03  6.256E-01  1.000E+01  3.500E-02  1.209E+00
   1    6    8     5     1    1.0432E+01  2.2686E-01   1.0205E+01  0.000E+00  0.000E+00  0.000E+00  1.05868E+03  6.790E-01  1.542E+01  6.166E-02  1.226E+00
   1    7    7     5     2    1.0205E+01  2.7894E-01   9.9265E+00  0.000E+00  0.000E+00  0.000E+00  1.05417E+03  6.732E-01  1.519E+01  7.594E-02  1.224E+00
   1    8    7     5     3    9.9265E+00  1.9221E-01   9.7343E+00  0.000E+00  0.000E+00  0.000E+00  1.04992E+03  6.676E-01  1.497E+01  5.241E-02  1.223E+00
   1    8    6     5     4    9.7343E+00  1.3577E-01   9.5985E+00  0.000E+00  0.000E+00  0.000E+00  1.04691E+03  6.637E-01  1.482E+01  3.706E-02  1.221E+00
   1    9    6     6     1    7.8048E+01  3.2488E-01   7.7723E+01  0.000E+00  0.000E+00  0.000E+00  1.04514E+03  2.415E+00  1.200E+01  6.000E-02  1.805E+00
   1   10    7     6     2    7.7723E+01  3.2451E-01   7.7399E+01  0.000E+00  0.000E+00  0.000E+00  1.04059E+03  2.409E+00  1.200E+01  6.000E-02  1.803E+00
   1   11    7     6     3    7.7399E+01  3.2415E-01   7.7075E+01  0.000E+00  0.000E+00  0.000E+00  1.03604E+03  2.403E+00  1.200E+01  6.000E-02  1.801E+00
   1   12    7     6     4    7.7075E+01  3.2379E-01   7.6751E+01  0.000E+00  0.000E+00  0.000E+00  1.03149E+03  2.396E+00  1.200E+01  6.000E-02  1.799E+00
   1   13    7     6     5    7.6751E+01  2.6529E-02   7.6724E+01  0.000E+00  0.000E+00  0.000E+00  1.02830E+03  2.393E+00  1.200E+01  2.400E-02  3.685E-01
   1   14    9     7     1    1.5000E+02  1.3333E+00   1.4867E+02  0.000E+00  0.000E+00  0.000E+00  1.03987E+03  2.288E+00  5.529E+01  5.593E-01  7.946E-01
   1   13    8     7     2    1.4867E+02  1.8083E+00   1.4686E+02  0.000E+00  0.000E+00  0.000E+00  1.03478E+03  2.279E+00  5.526E+01  6.148E-01  9.804E-01
   1   13    7     7     3    1.4686E+02  1.3924E+00   1.4547E+02  0.000E+00  0.000E+00  0.000E+00  1.02969E+03  2.271E+00  5.522E+01  5.585E-01  8.311E-01
   1   13    6     8     1    2.2219E+02  1.0499E+00   2.2114E+02  0.000E+00  0.000E+00  0.000E+00  1.02514E+03  3.261E+00  4.729E+01  4.819E-01  7.263E-01
   1   13    5     8     2    2.2114E+02  2.2450E-01   2.2092E+02  0.000E+00  0.000E+00  0.000E+00  1.01888E+03  3.258E+00  4.723E+01  4.813E-01  1.555E-01
   1   13    4     8     3    2.2092E+02 -2.2455E+00   2.2316E+02  0.000E+00  0.000E+00  0.000E+00  1.01264E+03  3.263E+00  4.732E+01  4.822E+00 -1.552E-01
   1   13    3     8     4    2.2316E+02 -3.4204E+00   2.2658E+02  0.000E+00  0.000E+00  0.000E+00  1.00640E+03  3.279E+00  4.754E+01  4.845E+00 -2.353E-01
   1   13    2     8     5    2.2658E+02 -2.4415E+00   2.2902E+02  0.000E+00  0.000E+00  0.000E+00  1.00017E+03  3.295E+00  4.777E+01  4.868E+00 -1.672E-01
   1   13    1     8     6    2.2902E+02 -1.8524E+00   2.3088E+02  0.000E+00  0.000E+00  0.000E+00  9.95181E+02  3.306E+00  4.794E+01  2.931E+00 -2.106E-01
   1    8    6     9     1    0.0000E+00  0.0000E+00   0.0000E+00  0.000E+00  0.000E+00  0.000E+00  1.07875E+03  0.000E+00  4.000E+00  0.000E+00  1.000E+00
   1    8    5     9     2    0.0000E+00  0.0000E+00   0.0000E+00  0.000E+00  0.000E+00  0.000E+00  1.07825E+03  0.000E+00  4.000E+00  0.000E+00  1.000E+00





UNSATURATED ZONE PACKAGE VOLUMETRIC BUDGET FOR  TIME STEP    30 STRESS PERIOD   30
  ------------------------------------------------------------------------------



     CUMULATIVE VOLUMES      L**3       RATES FOR THIS TIME STEP      L**3/T
     ------------------                 ------------------------

           IN:                                      IN:
           ---                                      ---
        INFILTRATION =   337082055.8455          INFILTRATION =           4.4075

          OUT:                                     OUT:
          ----                                     ----
              UZF ET =   244947059.7576                UZF ET =           4.4075
        UZF RECHARGE =     1282289.7950          UZF RECHARGE =           0.0091

            IN - OUT =    90852706.2929              IN - OUT =      -9.1421E-03

          STORAGE:                                 STORAGE:
          --------                                 --------
      STORAGE CHANGE =    90853867.9730        STORAGE CHANGE =      -9.1421E-03

 PERCENT DISCREPANCY IS DIFFERENCE BETWEEN IN-OUT MINUS CHANGE IN STORAGE
 DIVIDED BY THE AVERAGE OF IN AND OUT TIMES 100

 PERCENT DISCREPANCY =          -0.00     PERCENT DISCREPANCY =           0.00






1
  VOLUMETRIC BUDGET FOR ENTIRE MODEL AT END OF TIME STEP   30, STRESS PERIOD  30
  ------------------------------------------------------------------------------

     CUMULATIVE VOLUMES      L**3       RATES FOR THIS TIME STEP      L**3/T
     ------------------                 ------------------------

           IN:                                      IN:
           ---                                      ---
               AG WELLS  =           0.0000                 AG WELLS  =           0.0000
        DIVERSION SEGMEN =      848802.5000          DIVERSION SEGMEN =           0.0000
    TS         GW IRRIGA =           0.0000      TS         GW IRRIGA =           0.0000
    TION         SW IRRI =           0.0000      TION         SW IRRI =           0.0000
    GATION      SYSTEM L =           0.0000      GATION      SYSTEM L =           0.0000
    OSSES GW      SYSTEM =           0.1856      OSSES GW      SYSTEM =           0.0000

                TOTAL IN =      848802.6875                  TOTAL IN =           0.0000

          OUT:                                     OUT:
          ----                                     ----
               AG WELLS  =           0.0000                 AG WELLS  =           0.0000
        DIVERSION SEGMEN =           0.0000          DIVERSION SEGMEN =           0.0000
    TS         GW IRRIGA =           0.0000      TS         GW IRRIGA =           0.0000
    TION         SW IRRI =      848819.6875      TION         SW IRRI =           0.0000
    GATION      SYSTEM L =           0.0000      GATION      SYSTEM L =           0.0000
    OSSES GW      SYSTEM =           0.0000      OSSES GW      SYSTEM =           0.0000

               TOTAL OUT =      848819.6875                 TOTAL OUT =           0.0000

                IN - OUT =         -17.0000                  IN - OUT =           0.0000

     PERCENT DISCREPANCY =          -0.00         PERCENT DISCREPANCY =           0.00



1
  VOLUMETRIC BUDGET FOR ENTIRE MODEL AT END OF TIME STEP   30, STRESS PERIOD  30
  ------------------------------------------------------------------------------

     CUMULATIVE VOLUMES      L**3       RATES FOR THIS TIME STEP      L**3/T
     ------------------                 ------------------------

           IN:                                      IN:
           ---                                      ---
             STORAGE     =    40036820.0000               STORAGE     =       8.4438E-02
       CONSTANT HEAD     =           0.0000         CONSTANT HEAD     =           0.0000
     HEAD DEP BOUNDS     =    21810786.0000       HEAD DEP BOUNDS     =           0.2856
      STREAM LEAKAGE     =   911287552.0000        STREAM LEAKAGE     =          13.3319
        UZF RECHARGE     =     1282289.6250          UZF RECHARGE     =       9.1421E-03
               GW ET     =           0.0000                 GW ET     =           0.0000
     SURFACE LEAKAGE     =           0.0000       SURFACE LEAKAGE     =           0.0000
           AG WELLS      =           0.0000             AG WELLS      =           0.0000

                TOTAL IN =   974417472.0000                  TOTAL IN =          13.7110

          OUT:                                     OUT:
          ----                                     ----
             STORAGE     =   122193896.0000               STORAGE     =           2.9442
       CONSTANT HEAD     =           0.0000         CONSTANT HEAD     =           0.0000
     HEAD DEP BOUNDS     =    22311578.0000       HEAD DEP BOUNDS     =           0.2969
      STREAM LEAKAGE     =   819432832.0000        STREAM LEAKAGE     =           9.9597
        UZF RECHARGE     =           0.0000          UZF RECHARGE     =           0.0000
               GW ET     =    10495102.0000                 GW ET     =           0.5110
     SURFACE LEAKAGE     =           0.0000       SURFACE LEAKAGE     =           0.0000
           AG WELLS      =           0.0000             AG WELLS      =           0.0000

               TOTAL OUT =   974433408.0000                 TOTAL OUT =          13.7118

                IN - OUT =      -15936.0000                  IN - OUT =      -7.9918E-04

     PERCENT DISCREPANCY =          -0.00         PERCENT DISCREPANCY =          -0.01






         TIME SUMMARY AT END OF TIME STEP   30 IN STRESS PERIOD   30
                    SECONDS     MINUTES      HOURS       DAYS        YEARS
                    -----------------------------------------------------------
   TIME STEP LENGTH  87667.      1461.1      24.352      1.0147     2.77799E-03
 STRESS PERIOD TIME 2.63000E+06  43833.      730.56      30.440     8.33397E-02
         TOTAL TIME 7.63565E+07 1.27261E+06  21210.      883.76      2.4196    
1
1
                            STRESS PERIOD NO.   31, LENGTH =   2630000.    
                            -----------------------------------------------

                              NUMBER OF TIME STEPS =    30

                               MULTIPLIER FOR DELT =     1.000

                            INITIAL TIME STEP SIZE =   87666.66    

 REUSING NON-PARAMETER GHB CELLS FROM LAST STRESS PERIOD

      2 GHB CELLS

 REUSING STREAM SEGMENT DATA FROM LAST STRESS PERIOD



            AREAL INFILTRATION RATE
 READING ON UNIT   19 WITH FORMAT: (10F4.0)            

            1           2           3           4           5           6           7           8           9          10
 ........................................................................................................................
   1   1.2000E-09   0.000       0.000       0.000       0.000       0.000       0.000       0.000       0.000       0.000    
   2   2.1000E-09  2.0000E-09  8.0000E-10  8.5000E-09   0.000       0.000       0.000       0.000       0.000       0.000    
   3   5.0000E-10  1.1000E-09  8.8000E-09  5.5000E-09   0.000       0.000       0.000       0.000       0.000       0.000    
   4   8.5000E-09  1.1000E-09  1.1000E-09  1.1000E-09  2.0000E-09   0.000       0.000       0.000       0.000       0.000    
   5   8.5000E-09  1.1000E-09  1.1000E-09  1.1000E-09  1.1000E-09   0.000       0.000       0.000       0.000       0.000    
   6   8.5000E-09  5.2000E-09  2.1000E-09  1.1000E-09  1.5000E-09   0.000       0.000       0.000       0.000       0.000    
   7   8.5000E-09  5.2000E-09  2.1000E-09  1.2000E-09  2.0000E-09   0.000       0.000       0.000       0.000       0.000    
   8   5.0000E-10  5.2000E-09  2.1000E-09  1.2000E-09  5.0000E-09   0.000       0.000       0.000       0.000       0.000    
   9   5.0000E-10  5.2000E-09  2.1000E-09  1.2000E-09  5.0000E-09   0.000       0.000       0.000       0.000       0.000    
  10   5.0000E-10  5.2000E-09  2.1000E-09  1.2000E-09  5.8000E-09   0.000       0.000       0.000       0.000       0.000    
  11   1.0000E-10  1.1000E-09  1.1000E-09  1.2000E-09  5.0000E-09   0.000       0.000       0.000       0.000       0.000    
  12   1.1000E-09  1.1000E-09  1.1000E-09  1.1000E-09  2.0000E-09   0.000       0.000       0.000       0.000       0.000    
  13   1.1000E-09  2.2000E-09  2.2000E-09  2.1000E-09  1.0000E-09   0.000       0.000       0.000       0.000       0.000    
  14   2.0000E-10  5.5000E-09  5.5000E-09  5.2000E-09  1.0000E-09   0.000       0.000       0.000       0.000       0.000    
  15    0.000      8.8000E-09  8.8000E-09   0.000       0.000       0.000       0.000       0.000       0.000       0.000    

                  ET RATE =  1.500000E-07

 USING ET EXTINCTION DEPTH FROM PREVIOUS STRESS PERIOD. CURRENT PERIOD IS:      31

 USING EXTINCTION WATER CONTENT FROM PREVIOUS STRESS PERIOD. CURRENT PERIOD IS:      31

 USING AIR ENTRY PRESSURE FROM PREVIOUS STRESS PERIOD. CURRENT PERIOD IS:      31

 USING ROOT PRESSURE HEAD FROM PREVIOUS STRESS PERIOD. CURRENT PERIOD IS:      31

 USING ROOT ACTIVITY FROM PREVIOUS STRESS PERIOD. CURRENT PERIOD IS:      31

 PROCESSING AG STRESS PERIOD DATA

 READING AG STRESS PERIOD DATA

 READING IRRIGATION SEGMENT

 READING IRRIGATION WELL

 READING SUPPLEMENTAL WELL

 END PROCESSING AG STRESS PERIOD DATA OPTIONS
 
 SOLVING FOR HEAD 
                                                   Max.-Head-Change                         Max.-Flux-Residual
  Residual-Control   Outer-Iter.   Inner-Iter.     Column Row Layer    Maximum-Head-Change  Column Row Layer    Maximum-Flux-Residual          L2-NORM 
          0                 1           2             3   13     1      -0.9991419997E-02       3   13    1        -0.6408128275E+00      0.1010969370E+01
          0                 2           2             3   13     1       0.9384570511E-03       3   13    1         0.6188612484E-01      0.9890153467E-01
          0                 3           1             4   13     1      -0.6228649397E-04       4   13    1        -0.4252273256E-02      0.6816555163E-02

    ------------------------------------------------
       NWT REQUIRED            3 OUTER ITERATIONS 
       AND A TOTAL OF          5 INNER ITERATIONS.
    ------------------------------------------------

 NO OUTPUT CONTROL FOR STRESS PERIOD   31   TIME STEP    1
 
 SOLVING FOR HEAD 
                                                   Max.-Head-Change                         Max.-Flux-Residual
  Residual-Control   Outer-Iter.   Inner-Iter.     Column Row Layer    Maximum-Head-Change  Column Row Layer    Maximum-Flux-Residual          L2-NORM 
          0                 1           2             3   13     1      -0.9920231222E-02       3   13    1        -0.6346533999E+00      0.9987632107E+00
          0                 2           2             4   13     1       0.9480757269E-03       4   13    1         0.6287411580E-01      0.9832636327E-01
          0                 3           1             4   13     1      -0.6386040862E-04       4   13    1        -0.4354327120E-02      0.6742099385E-02

    ------------------------------------------------
       NWT REQUIRED            3 OUTER ITERATIONS 
       AND A TOTAL OF          5 INNER ITERATIONS.
    ------------------------------------------------

 NO OUTPUT CONTROL FOR STRESS PERIOD   31   TIME STEP    2
 
 SOLVING FOR HEAD 
                                                   Max.-Head-Change                         Max.-Flux-Residual
  Residual-Control   Outer-Iter.   Inner-Iter.     Column Row Layer    Maximum-Head-Change  Column Row Layer    Maximum-Flux-Residual          L2-NORM 
          0                 1           2             3   13     1      -0.8067781999E-02       3   13    1        -0.5160252658E+00      0.8455739839E+00
          0                 2           2             3   13     1       0.7675500024E-03       4   13    1         0.5066209160E-01      0.8330936354E-01
          0                 3           1             4   13     1      -0.5145464822E-04       4   13    1        -0.3508296639E-02      0.5717518344E-02

    ------------------------------------------------
       NWT REQUIRED            3 OUTER ITERATIONS 
       AND A TOTAL OF          5 INNER ITERATIONS.
    ------------------------------------------------

 NO OUTPUT CONTROL FOR STRESS PERIOD   31   TIME STEP    3
 
 SOLVING FOR HEAD 
                                                   Max.-Head-Change                         Max.-Flux-Residual
  Residual-Control   Outer-Iter.   Inner-Iter.     Column Row Layer    Maximum-Head-Change  Column Row Layer    Maximum-Flux-Residual          L2-NORM 
          0                 1           2             3   13     1      -0.6562764031E-02       3   13    1        -0.4196559671E+00      0.7272239943E+00
          0                 2           2             3   13     1       0.6244620768E-03       3   13    1         0.4105531652E-01      0.7172581927E-01
          0                 3           1             4   13     1      -0.4146584746E-04       4   13    1        -0.2827161206E-02      0.4930564549E-02

    ------------------------------------------------
       NWT REQUIRED            3 OUTER ITERATIONS 
       AND A TOTAL OF          5 INNER ITERATIONS.
    ------------------------------------------------

 NO OUTPUT CONTROL FOR STRESS PERIOD   31   TIME STEP    4
 
 SOLVING FOR HEAD 
                                                   Max.-Head-Change                         Max.-Flux-Residual
  Residual-Control   Outer-Iter.   Inner-Iter.     Column Row Layer    Maximum-Head-Change  Column Row Layer    Maximum-Flux-Residual          L2-NORM 
          0                 1           2             3   13     1      -0.5339969196E-02       3   13    1        -0.3413672948E+00      0.6371034914E+00
          0                 2           2             3   13     1       0.5082038982E-03       3   13    1         0.3340234130E-01      0.6292580467E-01
          0                 3           1             3   13     1      -0.3356227373E-04       4   13    1        -0.2277373434E-02      0.4332874400E-02

    ------------------------------------------------
       NWT REQUIRED            3 OUTER ITERATIONS 
       AND A TOTAL OF          5 INNER ITERATIONS.
    ------------------------------------------------

 NO OUTPUT CONTROL FOR STRESS PERIOD   31   TIME STEP    5
 
 SOLVING FOR HEAD 
                                                   Max.-Head-Change                         Max.-Flux-Residual
  Residual-Control   Outer-Iter.   Inner-Iter.     Column Row Layer    Maximum-Head-Change  Column Row Layer    Maximum-Flux-Residual          L2-NORM 
          0                 1           2             3   13     1      -0.4346357161E-02       3   13    1        -0.2777608356E+00      0.5695751656E+00
          0                 2           2             3   13     1       0.4137301466E-03       3   13    1         0.2718423451E-01      0.5635000056E-01
          0                 3           1             3   13     1      -0.2732521448E-04       3   13    1        -0.1845863118E-02      0.3889983692E-02

    ------------------------------------------------
       NWT REQUIRED            3 OUTER ITERATIONS 
       AND A TOTAL OF          5 INNER ITERATIONS.
    ------------------------------------------------

 NO OUTPUT CONTROL FOR STRESS PERIOD   31   TIME STEP    6
 
 SOLVING FOR HEAD 
                                                   Max.-Head-Change                         Max.-Flux-Residual
  Residual-Control   Outer-Iter.   Inner-Iter.     Column Row Layer    Maximum-Head-Change  Column Row Layer    Maximum-Flux-Residual          L2-NORM 
          0                 1           2             1    1     1       0.3868271773E-02       3   13    1        -0.2260716206E+00      0.5197795518E+00
          0                 2           2             1    1     1      -0.3762777576E-03       3   13    1         0.2213004327E-01      0.5151337558E-01
          0                 3           1             1    1     1       0.2562311651E-04       3   13    1        -0.1503209820E-02      0.3563290299E-02

    ------------------------------------------------
       NWT REQUIRED            3 OUTER ITERATIONS 
       AND A TOTAL OF          5 INNER ITERATIONS.
    ------------------------------------------------

 NO OUTPUT CONTROL FOR STRESS PERIOD   31   TIME STEP    7
 
 SOLVING FOR HEAD 
                                                   Max.-Head-Change                         Max.-Flux-Residual
  Residual-Control   Outer-Iter.   Inner-Iter.     Column Row Layer    Maximum-Head-Change  Column Row Layer    Maximum-Flux-Residual          L2-NORM 
          0                 1           2             1    1     1       0.3864559077E-02       1    1    1         0.2006017855E+00      0.4835880108E+00
          0                 2           2             1    1     1      -0.3759166121E-03       1    1    1        -0.2006020468E-01      0.4800876154E-01
          0                 3           1             1    1     1       0.2559852380E-04       1    1    1         0.1404214690E-02      0.3328529543E-02

    ------------------------------------------------
       NWT REQUIRED            3 OUTER ITERATIONS 
       AND A TOTAL OF          5 INNER ITERATIONS.
    ------------------------------------------------

 NO OUTPUT CONTROL FOR STRESS PERIOD   31   TIME STEP    8
 
 SOLVING FOR HEAD 
                                                   Max.-Head-Change                         Max.-Flux-Residual
  Residual-Control   Outer-Iter.   Inner-Iter.     Column Row Layer    Maximum-Head-Change  Column Row Layer    Maximum-Flux-Residual          L2-NORM 
          0                 1           2             1    1     1       0.3860836690E-02       1    1    1         0.2004080922E+00      0.4575769752E+00
          0                 2           2             1    1     1      -0.3755545234E-03       1    1    1        -0.2004083522E-01      0.4549756361E-01
          0                 3           1             1    1     1       0.2557386694E-04       1    1    1         0.1402858820E-02      0.3161089279E-02

    ------------------------------------------------
       NWT REQUIRED            3 OUTER ITERATIONS 
       AND A TOTAL OF          5 INNER ITERATIONS.
    ------------------------------------------------

 NO OUTPUT CONTROL FOR STRESS PERIOD   31   TIME STEP    9
 
 SOLVING FOR HEAD 
                                                   Max.-Head-Change                         Max.-Flux-Residual
  Residual-Control   Outer-Iter.   Inner-Iter.     Column Row Layer    Maximum-Head-Change  Column Row Layer    Maximum-Flux-Residual          L2-NORM 
          0                 1           2             1    1     1       0.3857150642E-02       1    1    1         0.2002162894E+00      0.4389939588E+00
          0                 2           2             1    1     1      -0.3751959696E-03       1    1    1        -0.2002165483E-01      0.4370728837E-01
          0                 3           1             1    1     1       0.2554945054E-04       1    1    1         0.1401516189E-02      0.3041921784E-02

    ------------------------------------------------
       NWT REQUIRED            3 OUTER ITERATIONS 
       AND A TOTAL OF          5 INNER ITERATIONS.
    ------------------------------------------------

 NO OUTPUT CONTROL FOR STRESS PERIOD   31   TIME STEP   10
 
 SOLVING FOR HEAD 
                                                   Max.-Head-Change                         Max.-Flux-Residual
  Residual-Control   Outer-Iter.   Inner-Iter.     Column Row Layer    Maximum-Head-Change  Column Row Layer    Maximum-Flux-Residual          L2-NORM 
          0                 1           2             1    1     1       0.3853477810E-02       1    1    1         0.2000251742E+00      0.4257347826E+00
          0                 2           2             1    1     1      -0.3748387019E-03       1    1    1        -0.2000254321E-01      0.4243231139E-01
          0                 3           1             1    1     1       0.2552512218E-04       1    1    1         0.1400178395E-02      0.2957441482E-02

    ------------------------------------------------
       NWT REQUIRED            3 OUTER ITERATIONS 
       AND A TOTAL OF          5 INNER ITERATIONS.
    ------------------------------------------------

 NO OUTPUT CONTROL FOR STRESS PERIOD   31   TIME STEP   11
 
 SOLVING FOR HEAD 
                                                   Max.-Head-Change                         Max.-Flux-Residual
  Residual-Control   Outer-Iter.   Inner-Iter.     Column Row Layer    Maximum-Head-Change  Column Row Layer    Maximum-Flux-Residual          L2-NORM 
          0                 1           2             1    1     1       0.3849818101E-02       1    1    1         0.1998347443E+00      0.4162313770E+00
          0                 2           2             1    1     1      -0.3744827105E-03       1    1    1        -0.1998350012E-01      0.4151934414E-01
          0                 3           1             1    1     1       0.2550088045E-04       1    1    1         0.1398845363E-02      0.2896454678E-02

    ------------------------------------------------
       NWT REQUIRED            3 OUTER ITERATIONS 
       AND A TOTAL OF          5 INNER ITERATIONS.
    ------------------------------------------------

 NO OUTPUT CONTROL FOR STRESS PERIOD   31   TIME STEP   12
 
 SOLVING FOR HEAD 
                                                   Max.-Head-Change                         Max.-Flux-Residual
  Residual-Control   Outer-Iter.   Inner-Iter.     Column Row Layer    Maximum-Head-Change  Column Row Layer    Maximum-Flux-Residual          L2-NORM 
          0                 1           2             1    1     1       0.3846148432E-02       1    1    1         0.1996437977E+00      0.4093829239E+00
          0                 2           2             1    1     1      -0.3741257498E-03       1    1    1        -0.1996440533E-01      0.4089811622E-01
          0                 3           1             1    1     1       0.2547657292E-04       1    1    1         0.1397508744E-02      0.2855889653E-02

    ------------------------------------------------
       NWT REQUIRED            3 OUTER ITERATIONS 
       AND A TOTAL OF          5 INNER ITERATIONS.
    ------------------------------------------------

 NO OUTPUT CONTROL FOR STRESS PERIOD   31   TIME STEP   13
 
 SOLVING FOR HEAD 
                                                   Max.-Head-Change                         Max.-Flux-Residual
  Residual-Control   Outer-Iter.   Inner-Iter.     Column Row Layer    Maximum-Head-Change  Column Row Layer    Maximum-Flux-Residual          L2-NORM 
          0                 1           2             1    1     1       0.3842514874E-02       1    1    1         0.1994547288E+00      0.4042851059E+00
          0                 2           2             1    1     1      -0.3737723019E-03       1    1    1        -0.1994549834E-01      0.4037256732E-01
          0                 3           1             1    1     1       0.2545250443E-04       1    1    1         0.1396185254E-02      0.2820648372E-02

    ------------------------------------------------
       NWT REQUIRED            3 OUTER ITERATIONS 
       AND A TOTAL OF          5 INNER ITERATIONS.
    ------------------------------------------------

 NO OUTPUT CONTROL FOR STRESS PERIOD   31   TIME STEP   14
 
 SOLVING FOR HEAD 
                                                   Max.-Head-Change                         Max.-Flux-Residual
  Residual-Control   Outer-Iter.   Inner-Iter.     Column Row Layer    Maximum-Head-Change  Column Row Layer    Maximum-Flux-Residual          L2-NORM 
          0                 1           2             1    1     1       0.3838894257E-02       1    1    1         0.1992663352E+00      0.4004948967E+00
          0                 2           2             1    1     1      -0.3734201129E-03       1    1    1        -0.1992665886E-01      0.4000819201E-01
          0                 3           1             1    1     1       0.2542852186E-04       1    1    1         0.1394866485E-02      0.2796927694E-02

    ------------------------------------------------
       NWT REQUIRED            3 OUTER ITERATIONS 
       AND A TOTAL OF          5 INNER ITERATIONS.
    ------------------------------------------------

 NO OUTPUT CONTROL FOR STRESS PERIOD   31   TIME STEP   15
 
 SOLVING FOR HEAD 
                                                   Max.-Head-Change                         Max.-Flux-Residual
  Residual-Control   Outer-Iter.   Inner-Iter.     Column Row Layer    Maximum-Head-Change  Column Row Layer    Maximum-Flux-Residual          L2-NORM 
          0                 1           2             1    1     1       0.3835263485E-02       1    1    1         0.1990774151E+00      0.3975769069E+00
          0                 2           2             1    1     1      -0.3730669361E-03       1    1    1        -0.1990776675E-01      0.3972702130E-01
          0                 3           1             1    1     1       0.2540447159E-04       1    1    1         0.1393544037E-02      0.2778142774E-02

    ------------------------------------------------
       NWT REQUIRED            3 OUTER ITERATIONS 
       AND A TOTAL OF          5 INNER ITERATIONS.
    ------------------------------------------------

 NO OUTPUT CONTROL FOR STRESS PERIOD   31   TIME STEP   16
 
 SOLVING FOR HEAD 
                                                   Max.-Head-Change                         Max.-Flux-Residual
  Residual-Control   Outer-Iter.   Inner-Iter.     Column Row Layer    Maximum-Head-Change  Column Row Layer    Maximum-Flux-Residual          L2-NORM 
          0                 1           2             1    1     1       0.3831668641E-02       1    1    1         0.1988903633E+00      0.3952820547E+00
          0                 2           2             1    1     1      -0.3727172544E-03       1    1    1        -0.1988906147E-01      0.3950538212E-01
          0                 3           1             1    1     1       0.2538065942E-04       1    1    1         0.1392234664E-02      0.2763252658E-02

    ------------------------------------------------
       NWT REQUIRED            3 OUTER ITERATIONS 
       AND A TOTAL OF          5 INNER ITERATIONS.
    ------------------------------------------------

 NO OUTPUT CONTROL FOR STRESS PERIOD   31   TIME STEP   17
 
 SOLVING FOR HEAD 
                                                   Max.-Head-Change                         Max.-Flux-Residual
  Residual-Control   Outer-Iter.   Inner-Iter.     Column Row Layer    Maximum-Head-Change  Column Row Layer    Maximum-Flux-Residual          L2-NORM 
          0                 1           2             1    1     1       0.3828063513E-02       1    1    1         0.1987027794E+00      0.3934323944E+00
          0                 2           2             1    1     1      -0.3723665720E-03       1    1    1        -0.1987030296E-01      0.3932618273E-01
          0                 3           1             1    1     1       0.2535677956E-04       1    1    1         0.1390921577E-02      0.2751207631E-02

    ------------------------------------------------
       NWT REQUIRED            3 OUTER ITERATIONS 
       AND A TOTAL OF          5 INNER ITERATIONS.
    ------------------------------------------------

 NO OUTPUT CONTROL FOR STRESS PERIOD   31   TIME STEP   18
 
 SOLVING FOR HEAD 
                                                   Max.-Head-Change                         Max.-Flux-Residual
  Residual-Control   Outer-Iter.   Inner-Iter.     Column Row Layer    Maximum-Head-Change  Column Row Layer    Maximum-Flux-Residual          L2-NORM 
          0                 1           2             1    1     1       0.3824494196E-02       1    1    1         0.1985170575E+00      0.3918896914E+00
          0                 2           2             1    1     1      -0.3720193731E-03       1    1    1        -0.1985173066E-01      0.3917610995E-01
          0                 3           1             1    1     1       0.2533313661E-04       1    1    1         0.1389621514E-02      0.2741134327E-02

    ------------------------------------------------
       NWT REQUIRED            3 OUTER ITERATIONS 
       AND A TOTAL OF          5 INNER ITERATIONS.
    ------------------------------------------------

 NO OUTPUT CONTROL FOR STRESS PERIOD   31   TIME STEP   19
 
 SOLVING FOR HEAD 
                                                   Max.-Head-Change                         Max.-Flux-Residual
  Residual-Control   Outer-Iter.   Inner-Iter.     Column Row Layer    Maximum-Head-Change  Column Row Layer    Maximum-Flux-Residual          L2-NORM 
          0                 1           2             1    1     1       0.3820914467E-02       1    1    1         0.1983307968E+00      0.3905774283E+00
          0                 2           2             1    1     1      -0.3716711616E-03       1    1    1        -0.1983310449E-01      0.3904819770E-01
          0                 3           1             1    1     1       0.2530942503E-04       1    1    1         0.1388317692E-02      0.2732585165E-02

    ------------------------------------------------
       NWT REQUIRED            3 OUTER ITERATIONS 
       AND A TOTAL OF          5 INNER ITERATIONS.
    ------------------------------------------------

 NO OUTPUT CONTROL FOR STRESS PERIOD   31   TIME STEP   20
 
 SOLVING FOR HEAD 
                                                   Max.-Head-Change                         Max.-Flux-Residual
  Residual-Control   Outer-Iter.   Inner-Iter.     Column Row Layer    Maximum-Head-Change  Column Row Layer    Maximum-Flux-Residual          L2-NORM 
          0                 1           2             1    1     1       0.3817370431E-02       1    1    1         0.1981463920E+00      0.3894393595E+00
          0                 2           2             1    1     1      -0.3713264221E-03       1    1    1        -0.1981466391E-01      0.3893662283E-01
          0                 3           1             1    1     1       0.2528594917E-04       1    1    1         0.1387026846E-02      0.2724802130E-02

    ------------------------------------------------
       NWT REQUIRED            3 OUTER ITERATIONS 
       AND A TOTAL OF          5 INNER ITERATIONS.
    ------------------------------------------------

 NO OUTPUT CONTROL FOR STRESS PERIOD   31   TIME STEP   21
 
 SOLVING FOR HEAD 
                                                   Max.-Head-Change                         Max.-Flux-Residual
  Residual-Control   Outer-Iter.   Inner-Iter.     Column Row Layer    Maximum-Head-Change  Column Row Layer    Maximum-Flux-Residual          L2-NORM 
          0                 1           2             1    1     1       0.3813815860E-02       1    1    1         0.1979614419E+00      0.3884282299E+00
          0                 2           2             1    1     1      -0.3709806578E-03       1    1    1        -0.1979616881E-01      0.3883744611E-01
          0                 3           1             1    1     1       0.2526240396E-04       1    1    1         0.1385732188E-02      0.2718149705E-02

    ------------------------------------------------
       NWT REQUIRED            3 OUTER ITERATIONS 
       AND A TOTAL OF          5 INNER ITERATIONS.
    ------------------------------------------------

 NO OUTPUT CONTROL FOR STRESS PERIOD   31   TIME STEP   22
 
 SOLVING FOR HEAD 
                                                   Max.-Head-Change                         Max.-Flux-Residual
  Residual-Control   Outer-Iter.   Inner-Iter.     Column Row Layer    Maximum-Head-Change  Column Row Layer    Maximum-Flux-Residual          L2-NORM 
          0                 1           2             1    1     1       0.3810296867E-02       1    1    1         0.1977783417E+00      0.3875090670E+00
          0                 2           2             1    1     1      -0.3706383539E-03       1    1    1        -0.1977785868E-01      0.3874677561E-01
          0                 3           1             1    1     1       0.2523909425E-04       1    1    1         0.1384450471E-02      0.2711879345E-02

    ------------------------------------------------
       NWT REQUIRED            3 OUTER ITERATIONS 
       AND A TOTAL OF          5 INNER ITERATIONS.
    ------------------------------------------------

 NO OUTPUT CONTROL FOR STRESS PERIOD   31   TIME STEP   23
 
 SOLVING FOR HEAD 
                                                   Max.-Head-Change                         Max.-Flux-Residual
  Residual-Control   Outer-Iter.   Inner-Iter.     Column Row Layer    Maximum-Head-Change  Column Row Layer    Maximum-Flux-Residual          L2-NORM 
          0                 1           2             1    1     1       0.3806767258E-02       1    1    1         0.1975946898E+00      0.3866737251E+00
          0                 2           2             1    1     1      -0.3702950174E-03       1    1    1        -0.1975949337E-01      0.3866411098E-01
          0                 3           1             1    1     1       0.2521571448E-04       1    1    1         0.1383164913E-02      0.2706095330E-02

    ------------------------------------------------
       NWT REQUIRED            3 OUTER ITERATIONS 
       AND A TOTAL OF          5 INNER ITERATIONS.
    ------------------------------------------------

 NO OUTPUT CONTROL FOR STRESS PERIOD   31   TIME STEP   24
 
 SOLVING FOR HEAD 
                                                   Max.-Head-Change                         Max.-Flux-Residual
  Residual-Control   Outer-Iter.   Inner-Iter.     Column Row Layer    Maximum-Head-Change  Column Row Layer    Maximum-Flux-Residual          L2-NORM 
          0                 1           2             1    1     1       0.3803250040E-02       1    1    1         0.1974116857E+00      0.3858957586E+00
          0                 2           2             1    1     1      -0.3699528865E-03       1    1    1        -0.1974119287E-01      0.3858721657E-01
          0                 3           1             1    1     1       0.2519241660E-04       1    1    1         0.1381883867E-02      0.2700898444E-02

    ------------------------------------------------
       NWT REQUIRED            3 OUTER ITERATIONS 
       AND A TOTAL OF          5 INNER ITERATIONS.
    ------------------------------------------------

 NO OUTPUT CONTROL FOR STRESS PERIOD   31   TIME STEP   25
 
 SOLVING FOR HEAD 
                                                   Max.-Head-Change                         Max.-Flux-Residual
  Residual-Control   Outer-Iter.   Inner-Iter.     Column Row Layer    Maximum-Head-Change  Column Row Layer    Maximum-Flux-Residual          L2-NORM 
          0                 1           2             1    1     1       0.3799768231E-02       1    1    1         0.1972305227E+00      0.3851712171E+00
          0                 2           2             1    1     1      -0.3696142000E-03       1    1    1        -0.1972307647E-01      0.3851526201E-01
          0                 3           1             1    1     1       0.2516935326E-04       1    1    1         0.1380615721E-02      0.2695788411E-02

    ------------------------------------------------
       NWT REQUIRED            3 OUTER ITERATIONS 
       AND A TOTAL OF          5 INNER ITERATIONS.
    ------------------------------------------------

 NO OUTPUT CONTROL FOR STRESS PERIOD   31   TIME STEP   26
 
 SOLVING FOR HEAD 
                                                   Max.-Head-Change                         Max.-Flux-Residual
  Residual-Control   Outer-Iter.   Inner-Iter.     Column Row Layer    Maximum-Head-Change  Column Row Layer    Maximum-Flux-Residual          L2-NORM 
          0                 1           2             1    1     1       0.3796275580E-02       1    1    1         0.1970487984E+00      0.3844807188E+00
          0                 2           2             1    1     1      -0.3692744584E-03       1    1    1        -0.1970490392E-01      0.3844670807E-01
          0                 3           1             1    1     1       0.2514621774E-04       1    1    1         0.1379343625E-02      0.2691147171E-02

    ------------------------------------------------
       NWT REQUIRED            3 OUTER ITERATIONS 
       AND A TOTAL OF          5 INNER ITERATIONS.
    ------------------------------------------------

 NO OUTPUT CONTROL FOR STRESS PERIOD   31   TIME STEP   27
 
 SOLVING FOR HEAD 
                                                   Max.-Head-Change                         Max.-Flux-Residual
  Residual-Control   Outer-Iter.   Inner-Iter.     Column Row Layer    Maximum-Head-Change  Column Row Layer    Maximum-Flux-Residual          L2-NORM 
          0                 1           2             1    1     1       0.3792795173E-02       1    1    1         0.1968677105E+00      0.3838353135E+00
          0                 2           2             1    1     1      -0.3689359087E-03       1    1    1        -0.1968679505E-01      0.3838848184E-01
          0                 3           1             1    1     1       0.2512316411E-04       1    1    1         0.1378076022E-02      0.2687056619E-02

    ------------------------------------------------
       NWT REQUIRED            3 OUTER ITERATIONS 
       AND A TOTAL OF          5 INNER ITERATIONS.
    ------------------------------------------------

 NO OUTPUT CONTROL FOR STRESS PERIOD   31   TIME STEP   28
 
 SOLVING FOR HEAD 
                                                   Max.-Head-Change                         Max.-Flux-Residual
  Residual-Control   Outer-Iter.   Inner-Iter.     Column Row Layer    Maximum-Head-Change  Column Row Layer    Maximum-Flux-Residual          L2-NORM 
          0                 1           2             1    1     1       0.3789326925E-02       1    1    1         0.1966872575E+00      0.3832004069E+00
          0                 2           2             1    1     1      -0.3685985406E-03       1    1    1        -0.1966874962E-01      0.3831921139E-01
          0                 3           1             1    1     1       0.2510019023E-04       1    1    1         0.1376812825E-02      0.2682255982E-02

    ------------------------------------------------
       NWT REQUIRED            3 OUTER ITERATIONS 
       AND A TOTAL OF          5 INNER ITERATIONS.
    ------------------------------------------------

 NO OUTPUT CONTROL FOR STRESS PERIOD   31   TIME STEP   29
 
 SOLVING FOR HEAD 
                                                   Max.-Head-Change                         Max.-Flux-Residual
  Residual-Control   Outer-Iter.   Inner-Iter.     Column Row Layer    Maximum-Head-Change  Column Row Layer    Maximum-Flux-Residual          L2-NORM 
          0                 1           2             1    1     1       0.3785893884E-02       1    1    1         0.1965086340E+00      0.3826065044E+00
          0                 2           2             1    1     1      -0.3682645980E-03       1    1    1        -0.1965088719E-01      0.3826008427E-01
          0                 3           1             1    1     1       0.2507745019E-04       1    1    1         0.1375562466E-02      0.2678167736E-02

    ------------------------------------------------
       NWT REQUIRED            3 OUTER ITERATIONS 
       AND A TOTAL OF          5 INNER ITERATIONS.
    ------------------------------------------------

 NO OUTPUT CONTROL FOR STRESS PERIOD   31   TIME STEP   30



 STREAM LISTING     PERIOD     31   STEP       30

 LAYER ROW COL. STREAM  RCH.  FLOW INTO     FLOW TO   FLOW OUT OF   OVRLND.     DIRECT     STREAM       STREAM     STREAM     STREAM   STREAMBED  STREAMBED
                SEG.NO.  NO.  STRM. RCH.    AQUIFER    STRM. RCH.    RUNOFF     PRECIP       ET          HEAD       DEPTH      WIDTH   CONDCTNC.   GRADIENT

   1    1    1     1     1    6.2248E+01  3.7978E-01   6.1868E+01  0.000E+00  0.000E+00  0.000E+00  1.09460E+03  1.553E+00  1.854E+01  8.342E-02  1.518E+00
   1    2    2     1     2    6.1868E+01  5.8816E-01   6.1280E+01  0.000E+00  0.000E+00  0.000E+00  1.08961E+03  1.547E+00  1.848E+01  1.294E-01  1.516E+00
   1    3    3     1     3    6.1280E+01  5.0162E-01   6.0779E+01  0.000E+00  0.000E+00  0.000E+00  1.08396E+03  1.540E+00  1.841E+01  1.105E-01  1.513E+00
   1    3    4     1     4    6.0779E+01  4.6193E-01   6.0317E+01  0.000E+00  0.000E+00  0.000E+00  1.07894E+03  1.534E+00  1.836E+01  1.019E-01  1.511E+00
   1    4    5     2     1    5.8317E+01  3.9026E-01   5.7926E+01  0.000E+00  0.000E+00  0.000E+00  1.07394E+03  2.003E+00  1.200E+01  7.800E-02  1.668E+00
   1    5    6     2     2    5.7926E+01  2.9977E-01   5.7627E+01  0.000E+00  0.000E+00  0.000E+00  1.06851E+03  1.996E+00  1.200E+01  6.000E-02  1.665E+00
   1    6    6     2     3    5.7627E+01  2.9940E-01   5.7327E+01  0.000E+00  0.000E+00  0.000E+00  1.06378E+03  1.990E+00  1.200E+01  6.000E-02  1.663E+00
   1    7    6     2     4    5.7327E+01  2.9902E-01   5.7028E+01  0.000E+00  0.000E+00  0.000E+00  1.05906E+03  1.984E+00  1.200E+01  6.000E-02  1.661E+00
   1    8    6     2     5    5.7028E+01  2.9865E-01   5.6730E+01  0.000E+00  0.000E+00  0.000E+00  1.05434E+03  1.977E+00  1.200E+01  6.000E-02  1.659E+00
   1    3    5     3     1    2.0000E+00  2.8252E-01   1.7175E+00  0.000E+00  0.000E+00  0.000E+00  1.07555E+03  1.909E+00  9.636E+00  7.227E-02  1.955E+00
   1    3    6     3     2    1.7175E+00  2.4905E-01   1.4684E+00  0.000E+00  0.000E+00  0.000E+00  1.07264E+03  1.727E+00  8.909E+00  6.682E-02  1.864E+00
   1    3    7     3     3    1.4684E+00  1.9718E-01   1.2712E+00  0.000E+00  0.000E+00  0.000E+00  1.06987E+03  1.555E+00  8.218E+00  5.547E-02  1.777E+00
   1    4    8     3     4    1.2712E+00  2.2567E-01   1.0456E+00  0.000E+00  0.000E+00  0.000E+00  1.06682E+03  1.364E+00  7.455E+00  6.709E-02  1.682E+00
   1    5    8     3     5    1.0456E+00  1.5790E-01   8.8768E-01  0.000E+00  0.000E+00  0.000E+00  1.06362E+03  1.164E+00  6.655E+00  4.991E-02  1.582E+00
   1    6    8     3     6    8.8768E-01  5.5980E-02   8.3170E-01  0.000E+00  0.000E+00  0.000E+00  1.06158E+03  1.036E+00  6.145E+00  1.844E-02  1.518E+00
   1    5   10     4     1    1.0000E+01  9.0919E-02   9.9091E+00  0.000E+00  0.000E+00  0.000E+00  1.07836E+03  6.368E-01  1.000E+01  2.500E-02  1.212E+00
   1    5    9     4     2    9.9091E+00  1.8158E-01   9.7275E+00  0.000E+00  0.000E+00  0.000E+00  1.07154E+03  6.315E-01  1.000E+01  5.000E-02  1.211E+00
   1    6    8     4     3    9.7275E+00  1.2689E-01   9.6006E+00  0.000E+00  0.000E+00  0.000E+00  1.06381E+03  6.256E-01  1.000E+01  3.500E-02  1.209E+00
   1    6    8     5     1    1.0432E+01  2.2686E-01   1.0205E+01  0.000E+00  0.000E+00  0.000E+00  1.05868E+03  6.790E-01  1.542E+01  6.166E-02  1.226E+00
   1    7    7     5     2    1.0205E+01  2.7894E-01   9.9265E+00  0.000E+00  0.000E+00  0.000E+00  1.05417E+03  6.732E-01  1.519E+01  7.594E-02  1.224E+00
   1    8    7     5     3    9.9265E+00  1.9221E-01   9.7343E+00  0.000E+00  0.000E+00  0.000E+00  1.04992E+03  6.676E-01  1.497E+01  5.241E-02  1.223E+00
   1    8    6     5     4    9.7343E+00  1.3577E-01   9.5985E+00  0.000E+00  0.000E+00  0.000E+00  1.04691E+03  6.637E-01  1.482E+01  3.706E-02  1.221E+00
   1    9    6     6     1    6.6328E+01  3.1138E-01   6.6017E+01  0.000E+00  0.000E+00  0.000E+00  1.04492E+03  2.190E+00  1.200E+01  6.000E-02  1.730E+00
   1   10    7     6     2    6.6017E+01  3.1101E-01   6.5706E+01  0.000E+00  0.000E+00  0.000E+00  1.04037E+03  2.183E+00  1.200E+01  6.000E-02  1.728E+00
   1   11    7     6     3    6.5706E+01  3.1064E-01   6.5395E+01  0.000E+00  0.000E+00  0.000E+00  1.03581E+03  2.177E+00  1.200E+01  6.000E-02  1.726E+00
   1   12    7     6     4    6.5395E+01  3.1027E-01   6.5085E+01  0.000E+00  0.000E+00  0.000E+00  1.03126E+03  2.171E+00  1.200E+01  6.000E-02  1.724E+00
   1   13    7     6     5    6.5085E+01  2.0788E-02   6.5064E+01  0.000E+00  0.000E+00  0.000E+00  1.02808E+03  2.168E+00  1.200E+01  2.400E-02  2.887E-01
   1   14    9     7     1    1.5000E+02  1.3333E+00   1.4867E+02  0.000E+00  0.000E+00  0.000E+00  1.03987E+03  2.288E+00  5.529E+01  5.593E-01  7.946E-01
   1   13    8     7     2    1.4867E+02  1.8057E+00   1.4686E+02  0.000E+00  0.000E+00  0.000E+00  1.03478E+03  2.279E+00  5.526E+01  6.148E-01  9.790E-01
   1   13    7     7     3    1.4686E+02  1.3847E+00   1.4548E+02  0.000E+00  0.000E+00  0.000E+00  1.02969E+03  2.271E+00  5.522E+01  5.585E-01  8.265E-01
   1   13    6     8     1    2.1054E+02  9.9083E-01   2.0955E+02  0.000E+00  0.000E+00  0.000E+00  1.02507E+03  3.196E+00  4.634E+01  4.722E-01  6.994E-01
   1   13    5     8     2    2.0955E+02  1.8540E-01   2.0936E+02  0.000E+00  0.000E+00  0.000E+00  1.01882E+03  3.193E+00  4.629E+01  4.717E-01  1.310E-01
   1   13    4     8     3    2.0936E+02 -2.2492E+00   2.1161E+02  0.000E+00  0.000E+00  0.000E+00  1.01257E+03  3.198E+00  4.638E+01  4.726E+00 -1.586E-01
   1   13    3     8     4    2.1161E+02 -3.3846E+00   2.1500E+02  0.000E+00  0.000E+00  0.000E+00  1.00634E+03  3.214E+00  4.661E+01  4.750E+00 -2.375E-01
   1   13    2     8     5    2.1500E+02 -2.5404E+00   2.1754E+02  0.000E+00  0.000E+00  0.000E+00  1.00011E+03  3.231E+00  4.685E+01  4.774E+00 -1.774E-01
   1   13    1     8     6    2.1754E+02 -1.9765E+00   2.1951E+02  0.000E+00  0.000E+00  0.000E+00  9.95119E+02  3.244E+00  4.703E+01  2.876E+00 -2.291E-01
   1    8    6     9     1    0.0000E+00  0.0000E+00   0.0000E+00  0.000E+00  0.000E+00  0.000E+00  1.07875E+03  0.000E+00  4.000E+00  0.000E+00  1.000E+00
   1    8    5     9     2    0.0000E+00  0.0000E+00   0.0000E+00  0.000E+00  0.000E+00  0.000E+00  1.07825E+03  0.000E+00  4.000E+00  0.000E+00  1.000E+00





UNSATURATED ZONE PACKAGE VOLUMETRIC BUDGET FOR  TIME STEP    30 STRESS PERIOD   31
  ------------------------------------------------------------------------------



     CUMULATIVE VOLUMES      L**3       RATES FOR THIS TIME STEP      L**3/T
     ------------------                 ------------------------

           IN:                                      IN:
           ---                                      ---
        INFILTRATION =   348673780.4036          INFILTRATION =           4.4075

          OUT:                                     OUT:
          ----                                     ----
              UZF ET =   256538784.3157                UZF ET =           4.4075
        UZF RECHARGE =     1282289.7950          UZF RECHARGE =       0.0000E+00

            IN - OUT =    90852706.2929              IN - OUT =       0.0000E+00

          STORAGE:                                 STORAGE:
          --------                                 --------
      STORAGE CHANGE =    90853867.9730        STORAGE CHANGE =       1.7512E-14

 PERCENT DISCREPANCY IS DIFFERENCE BETWEEN IN-OUT MINUS CHANGE IN STORAGE
 DIVIDED BY THE AVERAGE OF IN AND OUT TIMES 100

 PERCENT DISCREPANCY =          -0.00     PERCENT DISCREPANCY =           0.00






1
  VOLUMETRIC BUDGET FOR ENTIRE MODEL AT END OF TIME STEP   30, STRESS PERIOD  31
  ------------------------------------------------------------------------------

     CUMULATIVE VOLUMES      L**3       RATES FOR THIS TIME STEP      L**3/T
     ------------------                 ------------------------

           IN:                                      IN:
           ---                                      ---
               AG WELLS  =           0.0000                 AG WELLS  =           0.0000
        DIVERSION SEGMEN =      848802.5000          DIVERSION SEGMEN =           0.0000
    TS         GW IRRIGA =           0.0000      TS         GW IRRIGA =           0.0000
    TION         SW IRRI =           0.0000      TION         SW IRRI =           0.0000
    GATION      SYSTEM L =           0.0000      GATION      SYSTEM L =           0.0000
    OSSES GW      SYSTEM =           0.1856      OSSES GW      SYSTEM =           0.0000

                TOTAL IN =      848802.6875                  TOTAL IN =           0.0000

          OUT:                                     OUT:
          ----                                     ----
               AG WELLS  =           0.0000                 AG WELLS  =           0.0000
        DIVERSION SEGMEN =           0.0000          DIVERSION SEGMEN =           0.0000
    TS         GW IRRIGA =           0.0000      TS         GW IRRIGA =           0.0000
    TION         SW IRRI =      848819.6875      TION         SW IRRI =           0.0000
    GATION      SYSTEM L =           0.0000      GATION      SYSTEM L =           0.0000
    OSSES GW      SYSTEM =           0.0000      OSSES GW      SYSTEM =           0.0000

               TOTAL OUT =      848819.6875                 TOTAL OUT =           0.0000

                IN - OUT =         -17.0000                  IN - OUT =           0.0000

     PERCENT DISCREPANCY =          -0.00         PERCENT DISCREPANCY =           0.00



1
  VOLUMETRIC BUDGET FOR ENTIRE MODEL AT END OF TIME STEP   30, STRESS PERIOD  31
  ------------------------------------------------------------------------------

     CUMULATIVE VOLUMES      L**3       RATES FOR THIS TIME STEP      L**3/T
     ------------------                 ------------------------

           IN:                                      IN:
           ---                                      ---
             STORAGE     =    41017432.0000               STORAGE     =           0.1028
       CONSTANT HEAD     =           0.0000         CONSTANT HEAD     =           0.0000
     HEAD DEP BOUNDS     =    22561866.0000       HEAD DEP BOUNDS     =           0.2856
      STREAM LEAKAGE     =   945216128.0000        STREAM LEAKAGE     =          12.8841
        UZF RECHARGE     =     1282289.6250          UZF RECHARGE     =           0.0000
               GW ET     =           0.0000                 GW ET     =           0.0000
     SURFACE LEAKAGE     =           0.0000       SURFACE LEAKAGE     =           0.0000
           AG WELLS      =           0.0000             AG WELLS      =           0.0000

                TOTAL IN =  1010077696.0000                  TOTAL IN =          13.2725

          OUT:                                     OUT:
          ----                                     ----
             STORAGE     =   127783176.0000               STORAGE     =           2.0763
       CONSTANT HEAD     =           0.0000         CONSTANT HEAD     =           0.0000
     HEAD DEP BOUNDS     =    23092066.0000       HEAD DEP BOUNDS     =           0.2966
      STREAM LEAKAGE     =   846437632.0000        STREAM LEAKAGE     =          10.1507
        UZF RECHARGE     =           0.0000          UZF RECHARGE     =           0.0000
               GW ET     =    12782282.0000                 GW ET     =           0.7495
     SURFACE LEAKAGE     =           0.0000       SURFACE LEAKAGE     =           0.0000
           AG WELLS      =           0.0000             AG WELLS      =           0.0000

               TOTAL OUT =  1010095168.0000                 TOTAL OUT =          13.2730

                IN - OUT =      -17472.0000                  IN - OUT =      -5.6076E-04

     PERCENT DISCREPANCY =          -0.00         PERCENT DISCREPANCY =          -0.00






         TIME SUMMARY AT END OF TIME STEP   30 IN STRESS PERIOD   31
                    SECONDS     MINUTES      HOURS       DAYS        YEARS
                    -----------------------------------------------------------
   TIME STEP LENGTH  87667.      1461.1      24.352      1.0147     2.77799E-03
 STRESS PERIOD TIME 2.63000E+06  43833.      730.56      30.440     8.33397E-02
         TOTAL TIME 7.89864E+07 1.31644E+06  21941.      914.20      2.5029    
1
1
                            STRESS PERIOD NO.   32, LENGTH =   2630000.    
                            -----------------------------------------------

                              NUMBER OF TIME STEPS =    30

                               MULTIPLIER FOR DELT =     1.000

                            INITIAL TIME STEP SIZE =   87666.66    

 REUSING NON-PARAMETER GHB CELLS FROM LAST STRESS PERIOD

      2 GHB CELLS

 REUSING STREAM SEGMENT DATA FROM LAST STRESS PERIOD



            AREAL INFILTRATION RATE
 READING ON UNIT   19 WITH FORMAT: (10F4.0)            

            1           2           3           4           5           6           7           8           9          10
 ........................................................................................................................
   1   1.2000E-09   0.000       0.000       0.000       0.000       0.000       0.000       0.000       0.000       0.000    
   2   2.1000E-09  2.0000E-09  8.0000E-10  8.5000E-09   0.000       0.000       0.000       0.000       0.000       0.000    
   3   5.0000E-10  1.1000E-09  8.8000E-09  5.5000E-09   0.000       0.000       0.000       0.000       0.000       0.000    
   4   8.5000E-09  1.1000E-09  1.1000E-09  1.1000E-09  2.0000E-09   0.000       0.000       0.000       0.000       0.000    
   5   8.5000E-09  1.1000E-09  1.1000E-09  1.1000E-09  1.1000E-09   0.000       0.000       0.000       0.000       0.000    
   6   8.5000E-09  5.2000E-09  2.1000E-09  1.1000E-09  1.5000E-09   0.000       0.000       0.000       0.000       0.000    
   7   8.5000E-09  5.2000E-09  2.1000E-09  1.2000E-09  2.0000E-09   0.000       0.000       0.000       0.000       0.000    
   8   5.0000E-10  5.2000E-09  2.1000E-09  1.2000E-09  5.0000E-09   0.000       0.000       0.000       0.000       0.000    
   9   5.0000E-10  5.2000E-09  2.1000E-09  1.2000E-09  5.0000E-09   0.000       0.000       0.000       0.000       0.000    
  10   5.0000E-10  5.2000E-09  2.1000E-09  1.2000E-09  5.8000E-09   0.000       0.000       0.000       0.000       0.000    
  11   1.0000E-10  1.1000E-09  1.1000E-09  1.2000E-09  5.0000E-09   0.000       0.000       0.000       0.000       0.000    
  12   1.1000E-09  1.1000E-09  1.1000E-09  1.1000E-09  2.0000E-09   0.000       0.000       0.000       0.000       0.000    
  13   1.1000E-09  2.2000E-09  2.2000E-09  2.1000E-09  1.0000E-09   0.000       0.000       0.000       0.000       0.000    
  14   2.0000E-10  5.5000E-09  5.5000E-09  5.2000E-09  1.0000E-09   0.000       0.000       0.000       0.000       0.000    
  15    0.000      8.8000E-09  8.8000E-09   0.000       0.000       0.000       0.000       0.000       0.000       0.000    

                  ET RATE =  4.000000E-07

 USING ET EXTINCTION DEPTH FROM PREVIOUS STRESS PERIOD. CURRENT PERIOD IS:      32

 USING EXTINCTION WATER CONTENT FROM PREVIOUS STRESS PERIOD. CURRENT PERIOD IS:      32

 USING AIR ENTRY PRESSURE FROM PREVIOUS STRESS PERIOD. CURRENT PERIOD IS:      32

 USING ROOT PRESSURE HEAD FROM PREVIOUS STRESS PERIOD. CURRENT PERIOD IS:      32

 USING ROOT ACTIVITY FROM PREVIOUS STRESS PERIOD. CURRENT PERIOD IS:      32

 PROCESSING AG STRESS PERIOD DATA

 READING AG STRESS PERIOD DATA

 READING IRRIGATION SEGMENT

 READING IRRIGATION WELL

 READING SUPPLEMENTAL WELL

 END PROCESSING AG STRESS PERIOD DATA OPTIONS
 
 SOLVING FOR HEAD 
                                                   Max.-Head-Change                         Max.-Flux-Residual
  Residual-Control   Outer-Iter.   Inner-Iter.     Column Row Layer    Maximum-Head-Change  Column Row Layer    Maximum-Flux-Residual          L2-NORM 
          0                 1           2             3   13     1      -0.9964204818E-02       3   13    1        -0.7504831668E+00      0.1108292114E+01
          0                 2           2             3   13     1       0.9511069148E-03       3   13    1         0.7365231360E-01      0.1092847536E+00
          0                 3           1             3   13     1      -0.6306079543E-04       3   13    1        -0.5020734694E-02      0.7506357369E-02

    ------------------------------------------------
       NWT REQUIRED            3 OUTER ITERATIONS 
       AND A TOTAL OF          5 INNER ITERATIONS.
    ------------------------------------------------

 NO OUTPUT CONTROL FOR STRESS PERIOD   32   TIME STEP    1
 
 SOLVING FOR HEAD 
                                                   Max.-Head-Change                         Max.-Flux-Residual
  Residual-Control   Outer-Iter.   Inner-Iter.     Column Row Layer    Maximum-Head-Change  Column Row Layer    Maximum-Flux-Residual          L2-NORM 
          0                 1           2             3   13     1      -0.7123702914E-02       3   13    1        -0.5360712368E+00      0.8325019159E+00
          0                 2           2             3   13     1       0.6799776816E-03       3   13    1         0.5260989153E-01      0.8207482137E-01
          0                 3           1             3   13     1      -0.4509513067E-04       3   13    1        -0.3587139548E-02      0.5636704447E-02

    ------------------------------------------------
       NWT REQUIRED            3 OUTER ITERATIONS 
       AND A TOTAL OF          5 INNER ITERATIONS.
    ------------------------------------------------

 NO OUTPUT CONTROL FOR STRESS PERIOD   32   TIME STEP    2
 
 SOLVING FOR HEAD 
                                                   Max.-Head-Change                         Max.-Flux-Residual
  Residual-Control   Outer-Iter.   Inner-Iter.     Column Row Layer    Maximum-Head-Change  Column Row Layer    Maximum-Flux-Residual          L2-NORM 
          0                 1           2             3   13     1      -0.4926252613E-02       3   13    1        -0.3704234975E+00      0.6307461096E+00
          0                 2           2             3   13     1       0.4702568450E-03       3   13    1         0.3635549241E-01      0.6225151122E-01
          0                 3           1             3   13     1      -0.3118227464E-04       3   13    1        -0.2478455335E-02      0.4281387206E-02

    ------------------------------------------------
       NWT REQUIRED            3 OUTER ITERATIONS 
       AND A TOTAL OF          5 INNER ITERATIONS.
    ------------------------------------------------

 NO OUTPUT CONTROL FOR STRESS PERIOD   32   TIME STEP    3
 
 SOLVING FOR HEAD 
                                                   Max.-Head-Change                         Max.-Flux-Residual
  Residual-Control   Outer-Iter.   Inner-Iter.     Column Row Layer    Maximum-Head-Change  Column Row Layer    Maximum-Flux-Residual          L2-NORM 
          0                 1           2             3   13     1      -0.3410147822E-02       3   13    1        -0.2561577946E+00      0.5065433851E+00
          0                 2           2             1    1     1      -0.3277261760E-03       3   13    1         0.2514894023E-01      0.5009628321E-01
          0                 3           1             1    1     1       0.2231693504E-04       3   13    1        -0.1715668051E-02      0.3455065731E-02

    ------------------------------------------------
       NWT REQUIRED            3 OUTER ITERATIONS 
       AND A TOTAL OF          5 INNER ITERATIONS.
    ------------------------------------------------

 NO OUTPUT CONTROL FOR STRESS PERIOD   32   TIME STEP    4
 
 SOLVING FOR HEAD 
                                                   Max.-Head-Change                         Max.-Flux-Residual
  Residual-Control   Outer-Iter.   Inner-Iter.     Column Row Layer    Maximum-Head-Change  Column Row Layer    Maximum-Flux-Residual          L2-NORM 
          0                 1           2             1    1     1       0.3366426394E-02       3   13    1        -0.1773157788E+00      0.4339824159E+00
          0                 2           2             1    1     1      -0.3274617445E-03       1    1    1        -0.1747178917E-01      0.4302633165E-01
          0                 3           1             1    1     1       0.2229892823E-04       1    1    1         0.1223025612E-02      0.2977757455E-02

    ------------------------------------------------
       NWT REQUIRED            3 OUTER ITERATIONS 
       AND A TOTAL OF          5 INNER ITERATIONS.
    ------------------------------------------------

 NO OUTPUT CONTROL FOR STRESS PERIOD   32   TIME STEP    5
 
 SOLVING FOR HEAD 
                                                   Max.-Head-Change                         Max.-Flux-Residual
  Residual-Control   Outer-Iter.   Inner-Iter.     Column Row Layer    Maximum-Head-Change  Column Row Layer    Maximum-Flux-Residual          L2-NORM 
          0                 1           2             1    1     1       0.3363716896E-02       1    1    1         0.1745767763E+00      0.3934536588E+00
          0                 2           2             1    1     1      -0.3271981830E-03       1    1    1        -0.1745769442E-01      0.3910773234E-01
          0                 3           1             1    1     1       0.2228098106E-04       1    1    1         0.1222038980E-02      0.2720793424E-02

    ------------------------------------------------
       NWT REQUIRED            3 OUTER ITERATIONS 
       AND A TOTAL OF          5 INNER ITERATIONS.
    ------------------------------------------------

 NO OUTPUT CONTROL FOR STRESS PERIOD   32   TIME STEP    6
 
 SOLVING FOR HEAD 
                                                   Max.-Head-Change                         Max.-Flux-Residual
  Residual-Control   Outer-Iter.   Inner-Iter.     Column Row Layer    Maximum-Head-Change  Column Row Layer    Maximum-Flux-Residual          L2-NORM 
          0                 1           2             1    1     1       0.3361016316E-02       1    1    1         0.1744362935E+00      0.3712700428E+00
          0                 2           2             1    1     1      -0.3269354889E-03       1    1    1        -0.1744364608E-01      0.3696787746E-01
          0                 3           1             1    1     1       0.2226309211E-04       1    1    1         0.1221055578E-02      0.2573239140E-02

    ------------------------------------------------
       NWT REQUIRED            3 OUTER ITERATIONS 
       AND A TOTAL OF          5 INNER ITERATIONS.
    ------------------------------------------------

 NO OUTPUT CONTROL FOR STRESS PERIOD   32   TIME STEP    7
 
 SOLVING FOR HEAD 
                                                   Max.-Head-Change                         Max.-Flux-Residual
  Residual-Control   Outer-Iter.   Inner-Iter.     Column Row Layer    Maximum-Head-Change  Column Row Layer    Maximum-Flux-Residual          L2-NORM 
          0                 1           2             1    1     1       0.3358324607E-02       1    1    1         0.1742962732E+00      0.3589776848E+00
          0                 2           2             1    1     1      -0.3266736587E-03       1    1    1        -0.1742964399E-01      0.3579079669E-01
          0                 3           1             1    1     1       0.2224526304E-04       1    1    1         0.1220075462E-02      0.2495604408E-02

    ------------------------------------------------
       NWT REQUIRED            3 OUTER ITERATIONS 
       AND A TOTAL OF          5 INNER ITERATIONS.
    ------------------------------------------------

 NO OUTPUT CONTROL FOR STRESS PERIOD   32   TIME STEP    8
 
 SOLVING FOR HEAD 
                                                   Max.-Head-Change                         Max.-Flux-Residual
  Residual-Control   Outer-Iter.   Inner-Iter.     Column Row Layer    Maximum-Head-Change  Column Row Layer    Maximum-Flux-Residual          L2-NORM 
          0                 1           2             1    1     1       0.3355641742E-02       1    1    1         0.1741567128E+00      0.3518322341E+00
          0                 2           2             1    1     1      -0.3264126882E-03       1    1    1        -0.1741568790E-01      0.3510904186E-01
          0                 3           1             1    1     1       0.2222749172E-04       1    1    1         0.1219098536E-02      0.2450532382E-02

    ------------------------------------------------
       NWT REQUIRED            3 OUTER ITERATIONS 
       AND A TOTAL OF          5 INNER ITERATIONS.
    ------------------------------------------------

 NO OUTPUT CONTROL FOR STRESS PERIOD   32   TIME STEP    9
 
 SOLVING FOR HEAD 
                                                   Max.-Head-Change                         Max.-Flux-Residual
  Residual-Control   Outer-Iter.   Inner-Iter.     Column Row Layer    Maximum-Head-Change  Column Row Layer    Maximum-Flux-Residual          L2-NORM 
          0                 1           2             1    1     1       0.3352967657E-02       1    1    1         0.1740176110E+00      0.3473527555E+00
          0                 2           2             1    1     1      -0.3261525712E-03       1    1    1        -0.1740177765E-01      0.3468607924E-01
          0                 3           1             1    1     1       0.2220977862E-04       1    1    1         0.1218124798E-02      0.2427124967E-02

    ------------------------------------------------
       NWT REQUIRED            3 OUTER ITERATIONS 
       AND A TOTAL OF          5 INNER ITERATIONS.
    ------------------------------------------------

 NO OUTPUT CONTROL FOR STRESS PERIOD   32   TIME STEP   10
 
 SOLVING FOR HEAD 
                                                   Max.-Head-Change                         Max.-Flux-Residual
  Residual-Control   Outer-Iter.   Inner-Iter.     Column Row Layer    Maximum-Head-Change  Column Row Layer    Maximum-Flux-Residual          L2-NORM 
          0                 1           2             1    1     1       0.3350302358E-02       1    1    1         0.1738789644E+00      0.3442883574E+00
          0                 2           2             1    1     1      -0.3258933094E-03       1    1    1        -0.1738791292E-01      0.3438935448E-01
          0                 3           1             1    1     1       0.2219212374E-04       1    1    1         0.1217154271E-02      0.2403455869E-02

    ------------------------------------------------
       NWT REQUIRED            3 OUTER ITERATIONS 
       AND A TOTAL OF          5 INNER ITERATIONS.
    ------------------------------------------------

 NO OUTPUT CONTROL FOR STRESS PERIOD   32   TIME STEP   11
 
 SOLVING FOR HEAD 
                                                   Max.-Head-Change                         Max.-Flux-Residual
  Residual-Control   Outer-Iter.   Inner-Iter.     Column Row Layer    Maximum-Head-Change  Column Row Layer    Maximum-Flux-Residual          L2-NORM 
          0                 1           2             1    1     1       0.3347645790E-02       1    1    1         0.1737407733E+00      0.3420107746E+00
          0                 2           2             1    1     1      -0.3256348967E-03       1    1    1        -0.1737409375E-01      0.3417086156E-01
          0                 3           1             1    1     1       0.2217452684E-04       1    1    1         0.1216186920E-02      0.2389059016E-02

    ------------------------------------------------
       NWT REQUIRED            3 OUTER ITERATIONS 
       AND A TOTAL OF          5 INNER ITERATIONS.
    ------------------------------------------------

 NO OUTPUT CONTROL FOR STRESS PERIOD   32   TIME STEP   12
 
 SOLVING FOR HEAD 
                                                   Max.-Head-Change                         Max.-Flux-Residual
  Residual-Control   Outer-Iter.   Inner-Iter.     Column Row Layer    Maximum-Head-Change  Column Row Layer    Maximum-Flux-Residual          L2-NORM 
          0                 1           2             1    1     1       0.3344997910E-02       1    1    1         0.1736030350E+00      0.3401989111E+00
          0                 2           2             1    1     1      -0.3253773291E-03       1    1    1        -0.1736031985E-01      0.3399637039E-01
          0                 3           1             1    1     1       0.2215698746E-04       1    1    1         0.1215222753E-02      0.2377405196E-02

    ------------------------------------------------
       NWT REQUIRED            3 OUTER ITERATIONS 
       AND A TOTAL OF          5 INNER ITERATIONS.
    ------------------------------------------------

 NO OUTPUT CONTROL FOR STRESS PERIOD   32   TIME STEP   13
 
 SOLVING FOR HEAD 
                                                   Max.-Head-Change                         Max.-Flux-Residual
  Residual-Control   Outer-Iter.   Inner-Iter.     Column Row Layer    Maximum-Head-Change  Column Row Layer    Maximum-Flux-Residual          L2-NORM 
          0                 1           2             1    1     1       0.3342358688E-02       1    1    1         0.1734657471E+00      0.3386951514E+00
          0                 2           2             1    1     1      -0.3251206043E-03       1    1    1        -0.1734659100E-01      0.3385062600E-01
          0                 3           1             1    1     1       0.2213950582E-04       1    1    1         0.1214261758E-02      0.2367714836E-02

    ------------------------------------------------
       NWT REQUIRED            3 OUTER ITERATIONS 
       AND A TOTAL OF          5 INNER ITERATIONS.
    ------------------------------------------------

 NO OUTPUT CONTROL FOR STRESS PERIOD   32   TIME STEP   14
 
 SOLVING FOR HEAD 
                                                   Max.-Head-Change                         Max.-Flux-Residual
  Residual-Control   Outer-Iter.   Inner-Iter.     Column Row Layer    Maximum-Head-Change  Column Row Layer    Maximum-Flux-Residual          L2-NORM 
          0                 1           2             1    1     1       0.3339728106E-02       1    1    1         0.1733289081E+00      0.3374033402E+00
          0                 2           2             1    1     1      -0.3248647189E-03       1    1    1        -0.1733290703E-01      0.3372502082E-01
          0                 3           1             1    1     1       0.2212208052E-04       1    1    1         0.1213303861E-02      0.2359370912E-02

    ------------------------------------------------
       NWT REQUIRED            3 OUTER ITERATIONS 
       AND A TOTAL OF          5 INNER ITERATIONS.
    ------------------------------------------------

 NO OUTPUT CONTROL FOR STRESS PERIOD   32   TIME STEP   15
 
 SOLVING FOR HEAD 
                                                   Max.-Head-Change                         Max.-Flux-Residual
  Residual-Control   Outer-Iter.   Inner-Iter.     Column Row Layer    Maximum-Head-Change  Column Row Layer    Maximum-Flux-Residual          L2-NORM 
          0                 1           2             1    1     1       0.3337106084E-02       1    1    1         0.1731925171E+00      0.3362714842E+00
          0                 2           2             1    1     1      -0.3246096672E-03       1    1    1        -0.1731926789E-01      0.3361446544E-01
          0                 3           1             1    1     1       0.2210471249E-04       1    1    1         0.1212349120E-02      0.2351852556E-02

    ------------------------------------------------
       NWT REQUIRED            3 OUTER ITERATIONS 
       AND A TOTAL OF          5 INNER ITERATIONS.
    ------------------------------------------------

 NO OUTPUT CONTROL FOR STRESS PERIOD   32   TIME STEP   16
 
 SOLVING FOR HEAD 
                                                   Max.-Head-Change                         Max.-Flux-Residual
  Residual-Control   Outer-Iter.   Inner-Iter.     Column Row Layer    Maximum-Head-Change  Column Row Layer    Maximum-Flux-Residual          L2-NORM 
          0                 1           2             1    1     1       0.3334469510E-02       1    1    1         0.1730553690E+00      0.3352603006E+00
          0                 2           2             1    1     1      -0.3243531996E-03       1    1    1        -0.1730555303E-01      0.3351550192E-01
          0                 3           1             1    1     1       0.2208724813E-04       1    1    1         0.1211389083E-02      0.2345036368E-02

    ------------------------------------------------
       NWT REQUIRED            3 OUTER ITERATIONS 
       AND A TOTAL OF          5 INNER ITERATIONS.
    ------------------------------------------------

 NO OUTPUT CONTROL FOR STRESS PERIOD   32   TIME STEP   17
 
 SOLVING FOR HEAD 
                                                   Max.-Head-Change                         Max.-Flux-Residual
  Residual-Control   Outer-Iter.   Inner-Iter.     Column Row Layer    Maximum-Head-Change  Column Row Layer    Maximum-Flux-Residual          L2-NORM 
          0                 1           2             1    1     1       0.3331864628E-02       1    1    1         0.1729198682E+00      0.3343638923E+00
          0                 2           2             1    1     1      -0.3240998144E-03       1    1    1        -0.1729200287E-01      0.3342746338E-01
          0                 3           1             1    1     1       0.2206999346E-04       1    1    1         0.1210440563E-02      0.2339147105E-02

    ------------------------------------------------
       NWT REQUIRED            3 OUTER ITERATIONS 
       AND A TOTAL OF          5 INNER ITERATIONS.
    ------------------------------------------------

 NO OUTPUT CONTROL FOR STRESS PERIOD   32   TIME STEP   18
 
 SOLVING FOR HEAD 
                                                   Max.-Head-Change                         Max.-Flux-Residual
  Residual-Control   Outer-Iter.   Inner-Iter.     Column Row Layer    Maximum-Head-Change  Column Row Layer    Maximum-Flux-Residual          L2-NORM 
          0                 1           2             1    1     1       0.3329268226E-02       1    1    1         0.1727848097E+00      0.3335548268E+00
          0                 2           2             1    1     1      -0.3238472543E-03       1    1    1        -0.1727849696E-01      0.3334813250E-01
          0                 3           1             1    1     1       0.2205279489E-04       1    1    1         0.1209495152E-02      0.2333737678E-02

    ------------------------------------------------
       NWT REQUIRED            3 OUTER ITERATIONS 
       AND A TOTAL OF          5 INNER ITERATIONS.
    ------------------------------------------------

 NO OUTPUT CONTROL FOR STRESS PERIOD   32   TIME STEP   19
 
 SOLVING FOR HEAD 
                                                   Max.-Head-Change                         Max.-Flux-Residual
  Residual-Control   Outer-Iter.   Inner-Iter.     Column Row Layer    Maximum-Head-Change  Column Row Layer    Maximum-Flux-Residual          L2-NORM 
          0                 1           2             1    1     1       0.3326680258E-02       1    1    1         0.1726501909E+00      0.3328140577E+00
          0                 2           2             1    1     1      -0.3235955150E-03       1    1    1        -0.1726503503E-01      0.3327522196E-01
          0                 3           1             1    1     1       0.2203565265E-04       1    1    1         0.1208552829E-02      0.2328600285E-02

    ------------------------------------------------
       NWT REQUIRED            3 OUTER ITERATIONS 
       AND A TOTAL OF          5 INNER ITERATIONS.
    ------------------------------------------------

 NO OUTPUT CONTROL FOR STRESS PERIOD   32   TIME STEP   20
 
 SOLVING FOR HEAD 
                                                   Max.-Head-Change                         Max.-Flux-Residual
  Residual-Control   Outer-Iter.   Inner-Iter.     Column Row Layer    Maximum-Head-Change  Column Row Layer    Maximum-Flux-Residual          L2-NORM 
          0                 1           2             1    1     1       0.3324100699E-02       1    1    1         0.1725160094E+00      0.3321448669E+00
          0                 2           2             1    1     1      -0.3233445931E-03       1    1    1        -0.1725161681E-01      0.3320910094E-01
          0                 3           1             1    1     1       0.2201856578E-04       1    1    1         0.1207613548E-02      0.2324069241E-02

    ------------------------------------------------
       NWT REQUIRED            3 OUTER ITERATIONS 
       AND A TOTAL OF          5 INNER ITERATIONS.
    ------------------------------------------------

 NO OUTPUT CONTROL FOR STRESS PERIOD   32   TIME STEP   21
 
 SOLVING FOR HEAD 
                                                   Max.-Head-Change                         Max.-Flux-Residual
  Residual-Control   Outer-Iter.   Inner-Iter.     Column Row Layer    Maximum-Head-Change  Column Row Layer    Maximum-Flux-Residual          L2-NORM 
          0                 1           2             1    1     1       0.3321506400E-02       1    1    1         0.1723810624E+00      0.3315281812E+00
          0                 2           2             1    1     1      -0.3230922376E-03       1    1    1        -0.1723812206E-01      0.3314828742E-01
          0                 3           1             1    1     1       0.2200138094E-04       1    1    1         0.1206668896E-02      0.2319958242E-02

    ------------------------------------------------
       NWT REQUIRED            3 OUTER ITERATIONS 
       AND A TOTAL OF          5 INNER ITERATIONS.
    ------------------------------------------------

 NO OUTPUT CONTROL FOR STRESS PERIOD   32   TIME STEP   22
 
 SOLVING FOR HEAD 
                                                   Max.-Head-Change                         Max.-Flux-Residual
  Residual-Control   Outer-Iter.   Inner-Iter.     Column Row Layer    Maximum-Head-Change  Column Row Layer    Maximum-Flux-Residual          L2-NORM 
          0                 1           2             1    1     1       0.3318943628E-02       1    1    1         0.1722477541E+00      0.3309581902E+00
          0                 2           2             1    1     1      -0.3228429492E-03       1    1    1        -0.1722479117E-01      0.3309195535E-01
          0                 3           1             1    1     1       0.2198440555E-04       1    1    1         0.1205735755E-02      0.2316106799E-02

    ------------------------------------------------
       NWT REQUIRED            3 OUTER ITERATIONS 
       AND A TOTAL OF          5 INNER ITERATIONS.
    ------------------------------------------------

 NO OUTPUT CONTROL FOR STRESS PERIOD   32   TIME STEP   23
 
 SOLVING FOR HEAD 
                                                   Max.-Head-Change                         Max.-Flux-Residual
  Residual-Control   Outer-Iter.   Inner-Iter.     Column Row Layer    Maximum-Head-Change  Column Row Layer    Maximum-Flux-Residual          L2-NORM 
          0                 1           2             1    1     1       0.3316389160E-02       1    1    1         0.1721148790E+00      0.3304291518E+00
          0                 2           2             1    1     1      -0.3225944680E-03       1    1    1        -0.1721150360E-01      0.3303973781E-01
          0                 3           1             1    1     1       0.2196748483E-04       1    1    1         0.1204805617E-02      0.2312490295E-02

    ------------------------------------------------
       NWT REQUIRED            3 OUTER ITERATIONS 
       AND A TOTAL OF          5 INNER ITERATIONS.
    ------------------------------------------------

 NO OUTPUT CONTROL FOR STRESS PERIOD   32   TIME STEP   24
 
 SOLVING FOR HEAD 
                                                   Max.-Head-Change                         Max.-Flux-Residual
  Residual-Control   Outer-Iter.   Inner-Iter.     Column Row Layer    Maximum-Head-Change  Column Row Layer    Maximum-Flux-Residual          L2-NORM 
          0                 1           2             1    1     1       0.3313842978E-02       1    1    1         0.1719824344E+00      0.3299337312E+00
          0                 2           2             1    1     1      -0.3223467931E-03       1    1    1        -0.1719825908E-01      0.3299055088E-01
          0                 3           1             1    1     1       0.2195061925E-04       1    1    1         0.1203878512E-02      0.2309058448E-02

    ------------------------------------------------
       NWT REQUIRED            3 OUTER ITERATIONS 
       AND A TOTAL OF          5 INNER ITERATIONS.
    ------------------------------------------------

 NO OUTPUT CONTROL FOR STRESS PERIOD   32   TIME STEP   25
 
 SOLVING FOR HEAD 
                                                   Max.-Head-Change                         Max.-Flux-Residual
  Residual-Control   Outer-Iter.   Inner-Iter.     Column Row Layer    Maximum-Head-Change  Column Row Layer    Maximum-Flux-Residual          L2-NORM 
          0                 1           2             1    1     1       0.3311281909E-02       1    1    1         0.1718492176E+00      0.3294759068E+00
          0                 2           2             1    1     1      -0.3220976699E-03       1    1    1        -0.1718493733E-01      0.3294522558E-01
          0                 3           1             1    1     1       0.2193365499E-04       1    1    1         0.1202945993E-02      0.2306004443E-02

    ------------------------------------------------
       NWT REQUIRED            3 OUTER ITERATIONS 
       AND A TOTAL OF          5 INNER ITERATIONS.
    ------------------------------------------------

 NO OUTPUT CONTROL FOR STRESS PERIOD   32   TIME STEP   26
 
 SOLVING FOR HEAD 
                                                   Max.-Head-Change                         Max.-Flux-Residual
  Residual-Control   Outer-Iter.   Inner-Iter.     Column Row Layer    Maximum-Head-Change  Column Row Layer    Maximum-Flux-Residual          L2-NORM 
          0                 1           2             1    1     1       0.3308752221E-02       1    1    1         0.1717176326E+00      0.3290427112E+00
          0                 2           2             1    1     1      -0.3218515995E-03       1    1    1        -0.1717177878E-01      0.3290220008E-01
          0                 3           1             1    1     1       0.2191689876E-04       1    1    1         0.1202024889E-02      0.2302899862E-02

    ------------------------------------------------
       NWT REQUIRED            3 OUTER ITERATIONS 
       AND A TOTAL OF          5 INNER ITERATIONS.
    ------------------------------------------------

 NO OUTPUT CONTROL FOR STRESS PERIOD   32   TIME STEP   27
 
 SOLVING FOR HEAD 
                                                   Max.-Head-Change                         Max.-Flux-Residual
  Residual-Control   Outer-Iter.   Inner-Iter.     Column Row Layer    Maximum-Head-Change  Column Row Layer    Maximum-Flux-Residual          L2-NORM 
          0                 1           2             1    1     1       0.3306230690E-02       1    1    1         0.1715864728E+00      0.3286351461E+00
          0                 2           2             1    1     1      -0.3216063228E-03       1    1    1        -0.1715866275E-01      0.3286176872E-01
          0                 3           1             1    1     1       0.2190019649E-04       1    1    1         0.1201106781E-02      0.2300157912E-02

    ------------------------------------------------
       NWT REQUIRED            3 OUTER ITERATIONS 
       AND A TOTAL OF          5 INNER ITERATIONS.
    ------------------------------------------------

 NO OUTPUT CONTROL FOR STRESS PERIOD   32   TIME STEP   28
 
 SOLVING FOR HEAD 
                                                   Max.-Head-Change                         Max.-Flux-Residual
  Residual-Control   Outer-Iter.   Inner-Iter.     Column Row Layer    Maximum-Head-Change  Column Row Layer    Maximum-Flux-Residual          L2-NORM 
          0                 1           2             1    1     1       0.3303694165E-02       1    1    1         0.1714545338E+00      0.3282484990E+00
          0                 2           2             1    1     1      -0.3213595870E-03       1    1    1        -0.1714546879E-01      0.3282329262E-01
          0                 3           1             1    1     1       0.2188339434E-04       1    1    1         0.1200183193E-02      0.2297401812E-02

    ------------------------------------------------
       NWT REQUIRED            3 OUTER ITERATIONS 
       AND A TOTAL OF          5 INNER ITERATIONS.
    ------------------------------------------------

 NO OUTPUT CONTROL FOR STRESS PERIOD   32   TIME STEP   29
 
 SOLVING FOR HEAD 
                                                   Max.-Head-Change                         Max.-Flux-Residual
  Residual-Control   Outer-Iter.   Inner-Iter.     Column Row Layer    Maximum-Head-Change  Column Row Layer    Maximum-Flux-Residual          L2-NORM 
          0                 1           2             1    1     1       0.3301188941E-02       1    1    1         0.1713242217E+00      0.3278807118E+00
          0                 2           2             1    1     1      -0.3211158959E-03       1    1    1        -0.1713243752E-01      0.3278696645E-01
          0                 3           1             1    1     1       0.2186679999E-04       1    1    1         0.1199271006E-02      0.2294993169E-02

    ------------------------------------------------
       NWT REQUIRED            3 OUTER ITERATIONS 
       AND A TOTAL OF          5 INNER ITERATIONS.
    ------------------------------------------------

 NO OUTPUT CONTROL FOR STRESS PERIOD   32   TIME STEP   30



 STREAM LISTING     PERIOD     32   STEP       30

 LAYER ROW COL. STREAM  RCH.  FLOW INTO     FLOW TO   FLOW OUT OF   OVRLND.     DIRECT     STREAM       STREAM     STREAM     STREAM   STREAMBED  STREAMBED
                SEG.NO.  NO.  STRM. RCH.    AQUIFER    STRM. RCH.    RUNOFF     PRECIP       ET          HEAD       DEPTH      WIDTH   CONDCTNC.   GRADIENT

   1    1    1     1     1    5.6248E+01  3.5874E-01   5.5890E+01  0.000E+00  0.000E+00  0.000E+00  1.09453E+03  1.479E+00  1.780E+01  8.009E-02  1.493E+00
   1    2    2     1     2    5.5890E+01  5.5549E-01   5.5334E+01  0.000E+00  0.000E+00  0.000E+00  1.08953E+03  1.473E+00  1.774E+01  1.242E-01  1.491E+00
   1    3    3     1     3    5.5334E+01  4.7367E-01   5.4860E+01  0.000E+00  0.000E+00  0.000E+00  1.08389E+03  1.467E+00  1.767E+01  1.060E-01  1.489E+00
   1    3    4     1     4    5.4860E+01  4.3612E-01   5.4424E+01  0.000E+00  0.000E+00  0.000E+00  1.07887E+03  1.461E+00  1.762E+01  9.777E-02  1.487E+00
   1    4    5     2     1    5.2424E+01  3.8056E-01   5.2044E+01  0.000E+00  0.000E+00  0.000E+00  1.07381E+03  1.879E+00  1.200E+01  7.800E-02  1.626E+00
   1    5    6     2     2    5.2044E+01  2.9230E-01   5.1751E+01  0.000E+00  0.000E+00  0.000E+00  1.06838E+03  1.872E+00  1.200E+01  6.000E-02  1.624E+00
   1    6    6     2     3    5.1751E+01  2.9192E-01   5.1459E+01  0.000E+00  0.000E+00  0.000E+00  1.06366E+03  1.865E+00  1.200E+01  6.000E-02  1.622E+00
   1    7    6     2     4    5.1459E+01  2.9154E-01   5.1168E+01  0.000E+00  0.000E+00  0.000E+00  1.05893E+03  1.859E+00  1.200E+01  6.000E-02  1.620E+00
   1    8    6     2     5    5.1168E+01  2.9116E-01   5.0877E+01  0.000E+00  0.000E+00  0.000E+00  1.05421E+03  1.853E+00  1.200E+01  6.000E-02  1.618E+00
   1    3    5     3     1    2.0000E+00  2.8252E-01   1.7175E+00  0.000E+00  0.000E+00  0.000E+00  1.07555E+03  1.909E+00  9.636E+00  7.227E-02  1.955E+00
   1    3    6     3     2    1.7175E+00  2.4905E-01   1.4684E+00  0.000E+00  0.000E+00  0.000E+00  1.07264E+03  1.727E+00  8.909E+00  6.682E-02  1.864E+00
   1    3    7     3     3    1.4684E+00  1.9718E-01   1.2712E+00  0.000E+00  0.000E+00  0.000E+00  1.06987E+03  1.555E+00  8.218E+00  5.547E-02  1.777E+00
   1    4    8     3     4    1.2712E+00  2.2567E-01   1.0456E+00  0.000E+00  0.000E+00  0.000E+00  1.06682E+03  1.364E+00  7.455E+00  6.709E-02  1.682E+00
   1    5    8     3     5    1.0456E+00  1.5790E-01   8.8768E-01  0.000E+00  0.000E+00  0.000E+00  1.06362E+03  1.164E+00  6.655E+00  4.991E-02  1.582E+00
   1    6    8     3     6    8.8768E-01  5.5980E-02   8.3170E-01  0.000E+00  0.000E+00  0.000E+00  1.06158E+03  1.036E+00  6.145E+00  1.844E-02  1.518E+00
   1    5   10     4     1    1.0000E+01  9.0919E-02   9.9091E+00  0.000E+00  0.000E+00  0.000E+00  1.07836E+03  6.368E-01  1.000E+01  2.500E-02  1.212E+00
   1    5    9     4     2    9.9091E+00  1.8158E-01   9.7275E+00  0.000E+00  0.000E+00  0.000E+00  1.07154E+03  6.315E-01  1.000E+01  5.000E-02  1.211E+00
   1    6    8     4     3    9.7275E+00  1.2689E-01   9.6006E+00  0.000E+00  0.000E+00  0.000E+00  1.06381E+03  6.256E-01  1.000E+01  3.500E-02  1.209E+00
   1    6    8     5     1    1.0432E+01  2.2686E-01   1.0205E+01  0.000E+00  0.000E+00  0.000E+00  1.05868E+03  6.790E-01  1.542E+01  6.166E-02  1.226E+00
   1    7    7     5     2    1.0205E+01  2.7894E-01   9.9265E+00  0.000E+00  0.000E+00  0.000E+00  1.05417E+03  6.732E-01  1.519E+01  7.594E-02  1.224E+00
   1    8    7     5     3    9.9265E+00  1.9221E-01   9.7343E+00  0.000E+00  0.000E+00  0.000E+00  1.04992E+03  6.676E-01  1.497E+01  5.241E-02  1.223E+00
   1    8    6     5     4    9.7343E+00  1.3577E-01   9.5985E+00  0.000E+00  0.000E+00  0.000E+00  1.04691E+03  6.637E-01  1.482E+01  3.706E-02  1.221E+00
   1    9    6     6     1    6.0475E+01  3.0428E-01   6.0171E+01  0.000E+00  0.000E+00  0.000E+00  1.04480E+03  2.071E+00  1.200E+01  6.000E-02  1.690E+00
   1   10    7     6     2    6.0171E+01  3.0391E-01   5.9867E+01  0.000E+00  0.000E+00  0.000E+00  1.04025E+03  2.065E+00  1.200E+01  6.000E-02  1.688E+00
   1   11    7     6     3    5.9867E+01  3.0353E-01   5.9564E+01  0.000E+00  0.000E+00  0.000E+00  1.03570E+03  2.059E+00  1.200E+01  6.000E-02  1.686E+00
   1   12    7     6     4    5.9564E+01  3.0315E-01   5.9260E+01  0.000E+00  0.000E+00  0.000E+00  1.03114E+03  2.053E+00  1.200E+01  6.000E-02  1.684E+00
   1   13    7     6     5    5.9260E+01  1.7766E-02   5.9243E+01  0.000E+00  0.000E+00  0.000E+00  1.02796E+03  2.049E+00  1.200E+01  2.400E-02  2.467E-01
   1   14    9     7     1    1.5000E+02  1.3332E+00   1.4867E+02  0.000E+00  0.000E+00  0.000E+00  1.03987E+03  2.288E+00  5.529E+01  5.593E-01  7.946E-01
   1   13    8     7     2    1.4867E+02  1.8033E+00   1.4686E+02  0.000E+00  0.000E+00  0.000E+00  1.03478E+03  2.279E+00  5.526E+01  6.148E-01  9.778E-01
   1   13    7     7     3    1.4686E+02  1.3806E+00   1.4548E+02  0.000E+00  0.000E+00  0.000E+00  1.02969E+03  2.271E+00  5.522E+01  5.585E-01  8.241E-01
   1   13    6     8     1    2.0473E+02  9.6427E-01   2.0376E+02  0.000E+00  0.000E+00  0.000E+00  1.02504E+03  3.163E+00  4.586E+01  4.673E-01  6.878E-01
   1   13    5     8     2    2.0376E+02  1.7028E-01   2.0359E+02  0.000E+00  0.000E+00  0.000E+00  1.01878E+03  3.159E+00  4.581E+01  4.668E-01  1.216E-01
   1   13    4     8     3    2.0359E+02 -2.2463E+00   2.0584E+02  0.000E+00  0.000E+00  0.000E+00  1.01254E+03  3.165E+00  4.590E+01  4.677E+00 -1.601E-01
   1   13    3     8     4    2.0584E+02 -3.3617E+00   2.0920E+02  0.000E+00  0.000E+00  0.000E+00  1.00631E+03  3.181E+00  4.613E+01  4.701E+00 -2.384E-01
   1   13    2     8     5    2.0920E+02 -2.5426E+00   2.1174E+02  0.000E+00  0.000E+00  0.000E+00  1.00007E+03  3.198E+00  4.638E+01  4.726E+00 -1.793E-01
   1   13    1     8     6    2.1174E+02 -1.9868E+00   2.1373E+02  0.000E+00  0.000E+00  0.000E+00  9.95086E+02  3.211E+00  4.656E+01  2.847E+00 -2.326E-01
   1    8    6     9     1    0.0000E+00  0.0000E+00   0.0000E+00  0.000E+00  0.000E+00  0.000E+00  1.07875E+03  0.000E+00  4.000E+00  0.000E+00  1.000E+00
   1    8    5     9     2    0.0000E+00  0.0000E+00   0.0000E+00  0.000E+00  0.000E+00  0.000E+00  1.07825E+03  0.000E+00  4.000E+00  0.000E+00  1.000E+00





UNSATURATED ZONE PACKAGE VOLUMETRIC BUDGET FOR  TIME STEP    30 STRESS PERIOD   32
  ------------------------------------------------------------------------------



     CUMULATIVE VOLUMES      L**3       RATES FOR THIS TIME STEP      L**3/T
     ------------------                 ------------------------

           IN:                                      IN:
           ---                                      ---
        INFILTRATION =   360265504.9617          INFILTRATION =           4.4075

          OUT:                                     OUT:
          ----                                     ----
              UZF ET =   268130508.8738                UZF ET =           4.4075
        UZF RECHARGE =     1282289.7950          UZF RECHARGE =       0.0000E+00

            IN - OUT =    90852706.2929              IN - OUT =       0.0000E+00

          STORAGE:                                 STORAGE:
          --------                                 --------
      STORAGE CHANGE =    90853867.9730        STORAGE CHANGE =       5.3864E-14

 PERCENT DISCREPANCY IS DIFFERENCE BETWEEN IN-OUT MINUS CHANGE IN STORAGE
 DIVIDED BY THE AVERAGE OF IN AND OUT TIMES 100

 PERCENT DISCREPANCY =          -0.00     PERCENT DISCREPANCY =           0.00






1
  VOLUMETRIC BUDGET FOR ENTIRE MODEL AT END OF TIME STEP   30, STRESS PERIOD  32
  ------------------------------------------------------------------------------

     CUMULATIVE VOLUMES      L**3       RATES FOR THIS TIME STEP      L**3/T
     ------------------                 ------------------------

           IN:                                      IN:
           ---                                      ---
               AG WELLS  =           0.0000                 AG WELLS  =           0.0000
        DIVERSION SEGMEN =      848802.5000          DIVERSION SEGMEN =           0.0000
    TS         GW IRRIGA =           0.0000      TS         GW IRRIGA =           0.0000
    TION         SW IRRI =           0.0000      TION         SW IRRI =           0.0000
    GATION      SYSTEM L =           0.0000      GATION      SYSTEM L =           0.0000
    OSSES GW      SYSTEM =           0.1856      OSSES GW      SYSTEM =           0.0000

                TOTAL IN =      848802.6875                  TOTAL IN =           0.0000

          OUT:                                     OUT:
          ----                                     ----
               AG WELLS  =           0.0000                 AG WELLS  =           0.0000
        DIVERSION SEGMEN =           0.0000          DIVERSION SEGMEN =           0.0000
    TS         GW IRRIGA =           0.0000      TS         GW IRRIGA =           0.0000
    TION         SW IRRI =      848819.6875      TION         SW IRRI =           0.0000
    GATION      SYSTEM L =           0.0000      GATION      SYSTEM L =           0.0000
    OSSES GW      SYSTEM =           0.0000      OSSES GW      SYSTEM =           0.0000

               TOTAL OUT =      848819.6875                 TOTAL OUT =           0.0000

                IN - OUT =         -17.0000                  IN - OUT =           0.0000

     PERCENT DISCREPANCY =          -0.00         PERCENT DISCREPANCY =           0.00



1
  VOLUMETRIC BUDGET FOR ENTIRE MODEL AT END OF TIME STEP   30, STRESS PERIOD  32
  ------------------------------------------------------------------------------

     CUMULATIVE VOLUMES      L**3       RATES FOR THIS TIME STEP      L**3/T
     ------------------                 ------------------------

           IN:                                      IN:
           ---                                      ---
             STORAGE     =    41802672.0000               STORAGE     =           0.1082
       CONSTANT HEAD     =           0.0000         CONSTANT HEAD     =           0.0000
     HEAD DEP BOUNDS     =    23312946.0000       HEAD DEP BOUNDS     =           0.2856
      STREAM LEAKAGE     =   978514752.0000        STREAM LEAKAGE     =          12.6573
        UZF RECHARGE     =     1282289.6250          UZF RECHARGE     =           0.0000
               GW ET     =           0.0000                 GW ET     =           0.0000
     SURFACE LEAKAGE     =           0.0000       SURFACE LEAKAGE     =           0.0000
           AG WELLS      =           0.0000             AG WELLS      =           0.0000

                TOTAL IN =  1044912640.0000                  TOTAL IN =          13.0511

          OUT:                                     OUT:
          ----                                     ----
             STORAGE     =   132529704.0000               STORAGE     =           1.7808
       CONSTANT HEAD     =           0.0000         CONSTANT HEAD     =           0.0000
     HEAD DEP BOUNDS     =    23870820.0000       HEAD DEP BOUNDS     =           0.2958
      STREAM LEAKAGE     =   873303296.0000        STREAM LEAKAGE     =          10.1374
        UZF RECHARGE     =           0.0000          UZF RECHARGE     =           0.0000
               GW ET     =    15227284.0000                 GW ET     =           0.8375
     SURFACE LEAKAGE     =           0.0000       SURFACE LEAKAGE     =           0.0000
           AG WELLS      =           0.0000             AG WELLS      =           0.0000

               TOTAL OUT =  1044931072.0000                 TOTAL OUT =          13.0516

                IN - OUT =      -18432.0000                  IN - OUT =      -4.7398E-04

     PERCENT DISCREPANCY =          -0.00         PERCENT DISCREPANCY =          -0.00






         TIME SUMMARY AT END OF TIME STEP   30 IN STRESS PERIOD   32
                    SECONDS     MINUTES      HOURS       DAYS        YEARS
                    -----------------------------------------------------------
   TIME STEP LENGTH  87667.      1461.1      24.352      1.0147     2.77799E-03
 STRESS PERIOD TIME 2.63000E+06  43833.      730.56      30.440     8.33397E-02
         TOTAL TIME 8.16164E+07 1.36027E+06  22671.      944.63      2.5863    
1
1
                            STRESS PERIOD NO.   33, LENGTH =   2630000.    
                            -----------------------------------------------

                              NUMBER OF TIME STEPS =    30

                               MULTIPLIER FOR DELT =     1.000

                            INITIAL TIME STEP SIZE =   87666.66    

 REUSING NON-PARAMETER GHB CELLS FROM LAST STRESS PERIOD

      2 GHB CELLS

 REUSING STREAM SEGMENT DATA FROM LAST STRESS PERIOD



            AREAL INFILTRATION RATE
 READING ON UNIT   19 WITH FORMAT: (10F4.0)            

            1           2           3           4           5           6           7           8           9          10
 ........................................................................................................................
   1   1.2000E-09   0.000       0.000       0.000       0.000       0.000       0.000       0.000       0.000       0.000    
   2   2.1000E-09  2.0000E-09  8.0000E-10  8.5000E-09   0.000       0.000       0.000       0.000       0.000       0.000    
   3   5.0000E-10  1.1000E-09  8.8000E-09  5.5000E-09   0.000       0.000       0.000       0.000       0.000       0.000    
   4   8.5000E-09  1.1000E-09  1.1000E-09  1.1000E-09  2.0000E-09   0.000       0.000       0.000       0.000       0.000    
   5   8.5000E-09  1.1000E-09  1.1000E-09  1.1000E-09  1.1000E-09   0.000       0.000       0.000       0.000       0.000    
   6   8.5000E-09  5.2000E-09  2.1000E-09  1.1000E-09  1.5000E-09   0.000       0.000       0.000       0.000       0.000    
   7   8.5000E-09  5.2000E-09  2.1000E-09  1.2000E-09  2.0000E-09   0.000       0.000       0.000       0.000       0.000    
   8   5.0000E-10  5.2000E-09  2.1000E-09  1.2000E-09  5.0000E-09   0.000       0.000       0.000       0.000       0.000    
   9   5.0000E-10  5.2000E-09  2.1000E-09  1.2000E-09  5.0000E-09   0.000       0.000       0.000       0.000       0.000    
  10   5.0000E-10  5.2000E-09  2.1000E-09  1.2000E-09  5.8000E-09   0.000       0.000       0.000       0.000       0.000    
  11   1.0000E-10  1.1000E-09  1.1000E-09  1.2000E-09  5.0000E-09   0.000       0.000       0.000       0.000       0.000    
  12   1.1000E-09  1.1000E-09  1.1000E-09  1.1000E-09  2.0000E-09   0.000       0.000       0.000       0.000       0.000    
  13   1.1000E-09  2.2000E-09  2.2000E-09  2.1000E-09  1.0000E-09   0.000       0.000       0.000       0.000       0.000    
  14   2.0000E-10  5.5000E-09  5.5000E-09  5.2000E-09  1.0000E-09   0.000       0.000       0.000       0.000       0.000    
  15    0.000      8.8000E-09  8.8000E-09   0.000       0.000       0.000       0.000       0.000       0.000       0.000    

                  ET RATE =  3.250000E-07

 USING ET EXTINCTION DEPTH FROM PREVIOUS STRESS PERIOD. CURRENT PERIOD IS:      33

 USING EXTINCTION WATER CONTENT FROM PREVIOUS STRESS PERIOD. CURRENT PERIOD IS:      33

 USING AIR ENTRY PRESSURE FROM PREVIOUS STRESS PERIOD. CURRENT PERIOD IS:      33

 USING ROOT PRESSURE HEAD FROM PREVIOUS STRESS PERIOD. CURRENT PERIOD IS:      33

 USING ROOT ACTIVITY FROM PREVIOUS STRESS PERIOD. CURRENT PERIOD IS:      33

 PROCESSING AG STRESS PERIOD DATA

 READING AG STRESS PERIOD DATA

 READING IRRIGATION SEGMENT

 READING IRRIGATION WELL

 READING SUPPLEMENTAL WELL

 END PROCESSING AG STRESS PERIOD DATA OPTIONS
 
 SOLVING FOR HEAD 
                                                   Max.-Head-Change                         Max.-Flux-Residual
  Residual-Control   Outer-Iter.   Inner-Iter.     Column Row Layer    Maximum-Head-Change  Column Row Layer    Maximum-Flux-Residual          L2-NORM 
          0                 1           2             1    1     1       0.3265432050E-02       1    1    1         0.1694665975E+00      0.3392123391E+00
          0                 2           2             1    1     1      -0.3176377176E-03       1    1    1        -0.1694667457E-01      0.3389890746E-01
          0                 3           1             1    1     1       0.2162994898E-04       1    1    1         0.1186267603E-02      0.2370958619E-02

    ------------------------------------------------
       NWT REQUIRED            3 OUTER ITERATIONS 
       AND A TOTAL OF          5 INNER ITERATIONS.
    ------------------------------------------------

 NO OUTPUT CONTROL FOR STRESS PERIOD   33   TIME STEP    1
 
 SOLVING FOR HEAD 
                                                   Max.-Head-Change                         Max.-Flux-Residual
  Residual-Control   Outer-Iter.   Inner-Iter.     Column Row Layer    Maximum-Head-Change  Column Row Layer    Maximum-Flux-Residual          L2-NORM 
          0                 1           2             2   13     1      -0.3915358491E-02       2   13    1        -0.2217043748E+00      0.4355761865E+00
          0                 2           2             2   13     1       0.3698566919E-03       2   13    1         0.2153016815E-01      0.4292099459E-01
          0                 3           1             2   13     1      -0.2415501659E-04       2   13    1        -0.1445446143E-02      0.2944118219E-02

    ------------------------------------------------
       NWT REQUIRED            3 OUTER ITERATIONS 
       AND A TOTAL OF          5 INNER ITERATIONS.
    ------------------------------------------------

 NO OUTPUT CONTROL FOR STRESS PERIOD   33   TIME STEP    2
 
 SOLVING FOR HEAD 
                                                   Max.-Head-Change                         Max.-Flux-Residual
  Residual-Control   Outer-Iter.   Inner-Iter.     Column Row Layer    Maximum-Head-Change  Column Row Layer    Maximum-Flux-Residual          L2-NORM 
          0                 1           2             2   13     1      -0.3595450367E-02       2   13    1        -0.2037297292E+00      0.3960683622E+00
          0                 2           2             2   13     1       0.3410248050E-03       2   13    1         0.1986579612E-01      0.3911738848E-01
          0                 3           1             2   13     1      -0.2241957432E-04       2   13    1        -0.1342576159E-02      0.2692635607E-02

    ------------------------------------------------
       NWT REQUIRED            3 OUTER ITERATIONS 
       AND A TOTAL OF          5 INNER ITERATIONS.
    ------------------------------------------------

 NO OUTPUT CONTROL FOR STRESS PERIOD   33   TIME STEP    3
 
 SOLVING FOR HEAD 
                                                   Max.-Head-Change                         Max.-Flux-Residual
  Residual-Control   Outer-Iter.   Inner-Iter.     Column Row Layer    Maximum-Head-Change  Column Row Layer    Maximum-Flux-Residual          L2-NORM 
          0                 1           2             2   13     1      -0.3298902426E-02       2   13    1        -0.1870191880E+00      0.3692092547E+00
          0                 2           2             2   13     1       0.3138946165E-03       2   13    1         0.1829461239E-01      0.3654268071E-01
          0                 3           1             2   13     1      -0.2072861125E-04       2   13    1        -0.1241953777E-02      0.2522473024E-02

    ------------------------------------------------
       NWT REQUIRED            3 OUTER ITERATIONS 
       AND A TOTAL OF          5 INNER ITERATIONS.
    ------------------------------------------------

 NO OUTPUT CONTROL FOR STRESS PERIOD   33   TIME STEP    4
 
 SOLVING FOR HEAD 
                                                   Max.-Head-Change                         Max.-Flux-Residual
  Residual-Control   Outer-Iter.   Inner-Iter.     Column Row Layer    Maximum-Head-Change  Column Row Layer    Maximum-Flux-Residual          L2-NORM 
          0                 1           2             2   13     1      -0.3024895055E-02       2   13    1        -0.1715446955E+00      0.3501953835E+00
          0                 2           2             2   13     1       0.2885353759E-03       2   13    1         0.1682250206E-01      0.3472370007E-01
          0                 3           1             2   13     1      -0.1910235796E-04       2   13    1        -0.1144917580E-02      0.2402536973E-02

    ------------------------------------------------
       NWT REQUIRED            3 OUTER ITERATIONS 
       AND A TOTAL OF          5 INNER ITERATIONS.
    ------------------------------------------------

 NO OUTPUT CONTROL FOR STRESS PERIOD   33   TIME STEP    5
 
 SOLVING FOR HEAD 
                                                   Max.-Head-Change                         Max.-Flux-Residual
  Residual-Control   Outer-Iter.   Inner-Iter.     Column Row Layer    Maximum-Head-Change  Column Row Layer    Maximum-Flux-Residual          L2-NORM 
          0                 1           2             2   13     1      -0.2772385016E-02       2   13    1        -0.1572601942E+00      0.3360760435E+00
          0                 2           2             2   13     1       0.2649549830E-03       2   13    1         0.1545121077E-01      0.3337209365E-01
          0                 3           1             2   13     1      -0.1760214171E-04       2   13    1        -0.1055252925E-02      0.2313665518E-02

    ------------------------------------------------
       NWT REQUIRED            3 OUTER ITERATIONS 
       AND A TOTAL OF          5 INNER ITERATIONS.
    ------------------------------------------------

 NO OUTPUT CONTROL FOR STRESS PERIOD   33   TIME STEP    6
 
 SOLVING FOR HEAD 
                                                   Max.-Head-Change                         Max.-Flux-Residual
  Residual-Control   Outer-Iter.   Inner-Iter.     Column Row Layer    Maximum-Head-Change  Column Row Layer    Maximum-Flux-Residual          L2-NORM 
          0                 1           2             1    1     1       0.2599489129E-02       2   13    1        -0.1441113920E+00      0.3251059042E+00
          0                 2           2             1    1     1      -0.2528595070E-03       2   13    1         0.1418090439E-01      0.3232087324E-01
          0                 3           1             1    1     1       0.1721879396E-04       2   13    1        -0.9700510018E-03      0.2244194534E-02

    ------------------------------------------------
       NWT REQUIRED            3 OUTER ITERATIONS 
       AND A TOTAL OF          5 INNER ITERATIONS.
    ------------------------------------------------

 NO OUTPUT CONTROL FOR STRESS PERIOD   33   TIME STEP    7
 
 SOLVING FOR HEAD 
                                                   Max.-Head-Change                         Max.-Flux-Residual
  Residual-Control   Outer-Iter.   Inner-Iter.     Column Row Layer    Maximum-Head-Change  Column Row Layer    Maximum-Flux-Residual          L2-NORM 
          0                 1           2             1    1     1       0.2598175650E-02       1    1    1         0.1348045117E+00      0.3162379779E+00
          0                 2           2             1    1     1      -0.2527317409E-03       1    1    1        -0.1348045783E-01      0.3146881530E-01
          0                 3           1             1    1     1       0.1721009362E-04       1    1    1         0.9436323915E-03      0.2188797458E-02

    ------------------------------------------------
       NWT REQUIRED            3 OUTER ITERATIONS 
       AND A TOTAL OF          5 INNER ITERATIONS.
    ------------------------------------------------

 NO OUTPUT CONTROL FOR STRESS PERIOD   33   TIME STEP    8
 
 SOLVING FOR HEAD 
                                                   Max.-Head-Change                         Max.-Flux-Residual
  Residual-Control   Outer-Iter.   Inner-Iter.     Column Row Layer    Maximum-Head-Change  Column Row Layer    Maximum-Flux-Residual          L2-NORM 
          0                 1           2             1    1     1       0.2596888318E-02       1    1    1         0.1347376133E+00      0.3088578891E+00
          0                 2           2             1    1     1      -0.2526065184E-03       1    1    1        -0.1347376797E-01      0.3075728964E-01
          0                 3           1             1    1     1       0.1720156675E-04       1    1    1         0.9431641136E-03      0.2140807701E-02

    ------------------------------------------------
       NWT REQUIRED            3 OUTER ITERATIONS 
       AND A TOTAL OF          5 INNER ITERATIONS.
    ------------------------------------------------

 NO OUTPUT CONTROL FOR STRESS PERIOD   33   TIME STEP    9
 
 SOLVING FOR HEAD 
                                                   Max.-Head-Change                         Max.-Flux-Residual
  Residual-Control   Outer-Iter.   Inner-Iter.     Column Row Layer    Maximum-Head-Change  Column Row Layer    Maximum-Flux-Residual          L2-NORM 
          0                 1           2             1    1     1       0.2595580766E-02       1    1    1         0.1346696646E+00      0.3025916057E+00
          0                 2           2             1    1     1      -0.2524793291E-03       1    1    1        -0.1346697310E-01      0.3015208415E-01
          0                 3           1             1    1     1       0.1719290570E-04       1    1    1         0.9426884706E-03      0.2100851978E-02

    ------------------------------------------------
       NWT REQUIRED            3 OUTER ITERATIONS 
       AND A TOTAL OF          5 INNER ITERATIONS.
    ------------------------------------------------

 NO OUTPUT CONTROL FOR STRESS PERIOD   33   TIME STEP   10
 
 SOLVING FOR HEAD 
                                                   Max.-Head-Change                         Max.-Flux-Residual
  Residual-Control   Outer-Iter.   Inner-Iter.     Column Row Layer    Maximum-Head-Change  Column Row Layer    Maximum-Flux-Residual          L2-NORM 
          0                 1           2             1    1     1       0.2594276194E-02       1    1    1         0.1346018706E+00      0.2971950210E+00
          0                 2           2             1    1     1      -0.2523524296E-03       1    1    1        -0.1346019367E-01      0.2962835331E-01
          0                 3           1             1    1     1       0.1718426428E-04       1    1    1         0.9422139164E-03      0.2065298348E-02

    ------------------------------------------------
       NWT REQUIRED            3 OUTER ITERATIONS 
       AND A TOTAL OF          5 INNER ITERATIONS.
    ------------------------------------------------

 NO OUTPUT CONTROL FOR STRESS PERIOD   33   TIME STEP   11
 
 SOLVING FOR HEAD 
                                                   Max.-Head-Change                         Max.-Flux-Residual
  Residual-Control   Outer-Iter.   Inner-Iter.     Column Row Layer    Maximum-Head-Change  Column Row Layer    Maximum-Flux-Residual          L2-NORM 
          0                 1           2             1    1     1       0.2592997764E-02       1    1    1         0.1345354344E+00      0.2925098233E+00
          0                 2           2             1    1     1      -0.2522280728E-03       1    1    1        -0.1345355004E-01      0.2917396064E-01
          0                 3           1             1    1     1       0.1717579564E-04       1    1    1         0.9417488390E-03      0.2035561735E-02

    ------------------------------------------------
       NWT REQUIRED            3 OUTER ITERATIONS 
       AND A TOTAL OF          5 INNER ITERATIONS.
    ------------------------------------------------

 NO OUTPUT CONTROL FOR STRESS PERIOD   33   TIME STEP   12
 
 SOLVING FOR HEAD 
                                                   Max.-Head-Change                         Max.-Flux-Residual
  Residual-Control   Outer-Iter.   Inner-Iter.     Column Row Layer    Maximum-Head-Change  Column Row Layer    Maximum-Flux-Residual          L2-NORM 
          0                 1           2             1    1     1       0.2591699080E-02       1    1    1         0.1344679470E+00      0.2884080825E+00
          0                 2           2             1    1     1      -0.2521017457E-03       1    1    1        -0.1344680127E-01      0.2877436467E-01
          0                 3           1             1    1     1       0.1716719304E-04       1    1    1         0.9412764259E-03      0.2007728062E-02

    ------------------------------------------------
       NWT REQUIRED            3 OUTER ITERATIONS 
       AND A TOTAL OF          5 INNER ITERATIONS.
    ------------------------------------------------

 NO OUTPUT CONTROL FOR STRESS PERIOD   33   TIME STEP   13
 
 SOLVING FOR HEAD 
                                                   Max.-Head-Change                         Max.-Flux-Residual
  Residual-Control   Outer-Iter.   Inner-Iter.     Column Row Layer    Maximum-Head-Change  Column Row Layer    Maximum-Flux-Residual          L2-NORM 
          0                 1           2             1    1     1       0.2590403363E-02       1    1    1         0.1344006128E+00      0.2848103732E+00
          0                 2           2             1    1     1      -0.2519757077E-03       1    1    1        -0.1344006784E-01      0.2842443149E-01
          0                 3           1             1    1     1       0.1715861032E-04       1    1    1         0.9408050853E-03      0.1984634143E-02

    ------------------------------------------------
       NWT REQUIRED            3 OUTER ITERATIONS 
       AND A TOTAL OF          5 INNER ITERATIONS.
    ------------------------------------------------

 NO OUTPUT CONTROL FOR STRESS PERIOD   33   TIME STEP   14
 
 SOLVING FOR HEAD 
                                                   Max.-Head-Change                         Max.-Flux-Residual
  Residual-Control   Outer-Iter.   Inner-Iter.     Column Row Layer    Maximum-Head-Change  Column Row Layer    Maximum-Flux-Residual          L2-NORM 
          0                 1           2             1    1     1       0.2589110610E-02       1    1    1         0.1343334324E+00      0.2816448639E+00
          0                 2           2             1    1     1      -0.2518499580E-03       1    1    1        -0.1343334979E-01      0.2811585242E-01
          0                 3           1             1    1     1       0.1715004748E-04       1    1    1         0.9403348256E-03      0.1963074377E-02

    ------------------------------------------------
       NWT REQUIRED            3 OUTER ITERATIONS 
       AND A TOTAL OF          5 INNER ITERATIONS.
    ------------------------------------------------

 NO OUTPUT CONTROL FOR STRESS PERIOD   33   TIME STEP   15
 
 SOLVING FOR HEAD 
                                                   Max.-Head-Change                         Max.-Flux-Residual
  Residual-Control   Outer-Iter.   Inner-Iter.     Column Row Layer    Maximum-Head-Change  Column Row Layer    Maximum-Flux-Residual          L2-NORM 
          0                 1           2             1    1     1       0.2587843988E-02       1    1    1         0.1342676093E+00      0.2788481024E+00
          0                 2           2             1    1     1      -0.2517267500E-03       1    1    1        -0.1342676746E-01      0.2784223535E-01
          0                 3           1             1    1     1       0.1714165741E-04       1    1    1         0.9398740612E-03      0.1944658770E-02

    ------------------------------------------------
       NWT REQUIRED            3 OUTER ITERATIONS 
       AND A TOTAL OF          5 INNER ITERATIONS.
    ------------------------------------------------

 NO OUTPUT CONTROL FOR STRESS PERIOD   33   TIME STEP   16
 
 SOLVING FOR HEAD 
                                                   Max.-Head-Change                         Max.-Flux-Residual
  Residual-Control   Outer-Iter.   Inner-Iter.     Column Row Layer    Maximum-Head-Change  Column Row Layer    Maximum-Flux-Residual          L2-NORM 
          0                 1           2             1    1     1       0.2586557106E-02       1    1    1         0.1342007338E+00      0.2763715018E+00
          0                 2           2             1    1     1      -0.2516015710E-03       1    1    1        -0.1342007989E-01      0.2760041846E-01
          0                 3           1             1    1     1       0.1713313339E-04       1    1    1         0.9394059394E-03      0.1929498815E-02

    ------------------------------------------------
       NWT REQUIRED            3 OUTER ITERATIONS 
       AND A TOTAL OF          5 INNER ITERATIONS.
    ------------------------------------------------

 NO OUTPUT CONTROL FOR STRESS PERIOD   33   TIME STEP   17
 
 SOLVING FOR HEAD 
                                                   Max.-Head-Change                         Max.-Flux-Residual
  Residual-Control   Outer-Iter.   Inner-Iter.     Column Row Layer    Maximum-Head-Change  Column Row Layer    Maximum-Flux-Residual          L2-NORM 
          0                 1           2             1    1     1       0.2585273175E-02       1    1    1         0.1341340115E+00      0.2741839735E+00
          0                 2           2             1    1     1      -0.2514766796E-03       1    1    1        -0.1341340766E-01      0.2738655821E-01
          0                 3           1             1    1     1       0.1712462877E-04       1    1    1         0.9389388861E-03      0.1913859066E-02

    ------------------------------------------------
       NWT REQUIRED            3 OUTER ITERATIONS 
       AND A TOTAL OF          5 INNER ITERATIONS.
    ------------------------------------------------

 NO OUTPUT CONTROL FOR STRESS PERIOD   33   TIME STEP   18
 
 SOLVING FOR HEAD 
                                                   Max.-Head-Change                         Max.-Flux-Residual
  Residual-Control   Outer-Iter.   Inner-Iter.     Column Row Layer    Maximum-Head-Change  Column Row Layer    Maximum-Flux-Residual          L2-NORM 
          0                 1           2             1    1     1       0.2584015365E-02       1    1    1         0.1340686460E+00      0.2722364840E+00
          0                 2           2             1    1     1      -0.2513543287E-03       1    1    1        -0.1340687108E-01      0.2719583365E-01
          0                 3           1             1    1     1       0.1711629716E-04       1    1    1         0.9384813255E-03      0.1901204690E-02

    ------------------------------------------------
       NWT REQUIRED            3 OUTER ITERATIONS 
       AND A TOTAL OF          5 INNER ITERATIONS.
    ------------------------------------------------

 NO OUTPUT CONTROL FOR STRESS PERIOD   33   TIME STEP   19
 
 SOLVING FOR HEAD 
                                                   Max.-Head-Change                         Max.-Flux-Residual
  Residual-Control   Outer-Iter.   Inner-Iter.     Column Row Layer    Maximum-Head-Change  Column Row Layer    Maximum-Flux-Residual          L2-NORM 
          0                 1           2             1    1     1       0.2582737278E-02       1    1    1         0.1340022272E+00      0.2705043864E+00
          0                 2           2             1    1     1      -0.2512300052E-03       1    1    1        -0.1340022918E-01      0.2702606861E-01
          0                 3           1             1    1     1       0.1710783136E-04       1    1    1         0.9380163929E-03      0.1889530181E-02

    ------------------------------------------------
       NWT REQUIRED            3 OUTER ITERATIONS 
       AND A TOTAL OF          5 INNER ITERATIONS.
    ------------------------------------------------

 NO OUTPUT CONTROL FOR STRESS PERIOD   33   TIME STEP   20
 
 SOLVING FOR HEAD 
                                                   Max.-Head-Change                         Max.-Flux-Residual
  Residual-Control   Outer-Iter.   Inner-Iter.     Column Row Layer    Maximum-Head-Change  Column Row Layer    Maximum-Flux-Residual          L2-NORM 
          0                 1           2             1    1     1       0.2581462109E-02       1    1    1         0.1339359609E+00      0.2689616471E+00
          0                 2           2             1    1     1      -0.2511059660E-03       1    1    1        -0.1339360254E-01      0.2687511157E-01
          0                 3           1             1    1     1       0.1709938473E-04       1    1    1         0.9375525323E-03      0.1879233849E-02

    ------------------------------------------------
       NWT REQUIRED            3 OUTER ITERATIONS 
       AND A TOTAL OF          5 INNER ITERATIONS.
    ------------------------------------------------

 NO OUTPUT CONTROL FOR STRESS PERIOD   33   TIME STEP   21
 
 SOLVING FOR HEAD 
                                                   Max.-Head-Change                         Max.-Flux-Residual
  Residual-Control   Outer-Iter.   Inner-Iter.     Column Row Layer    Maximum-Head-Change  Column Row Layer    Maximum-Flux-Residual          L2-NORM 
          0                 1           2             1    1     1       0.2580189871E-02       1    1    1         0.1338698459E+00      0.2675792830E+00
          0                 2           2             1    1     1      -0.2509822115E-03       1    1    1        -0.1338699102E-01      0.2673947011E-01
          0                 3           1             1    1     1       0.1709095726E-04       1    1    1         0.9370897159E-03      0.1870008692E-02

    ------------------------------------------------
       NWT REQUIRED            3 OUTER ITERATIONS 
       AND A TOTAL OF          5 INNER ITERATIONS.
    ------------------------------------------------

 NO OUTPUT CONTROL FOR STRESS PERIOD   33   TIME STEP   22
 
 SOLVING FOR HEAD 
                                                   Max.-Head-Change                         Max.-Flux-Residual
  Residual-Control   Outer-Iter.   Inner-Iter.     Column Row Layer    Maximum-Head-Change  Column Row Layer    Maximum-Flux-Residual          L2-NORM 
          0                 1           2             1    1     1       0.2578920560E-02       1    1    1         0.1338038829E+00      0.2663383046E+00
          0                 2           2             1    1     1      -0.2508587419E-03       1    1    1        -0.1338039470E-01      0.2661773652E-01
          0                 3           1             1    1     1       0.1708254945E-04       1    1    1         0.9366279788E-03      0.1861397855E-02

    ------------------------------------------------
       NWT REQUIRED            3 OUTER ITERATIONS 
       AND A TOTAL OF          5 INNER ITERATIONS.
    ------------------------------------------------

 NO OUTPUT CONTROL FOR STRESS PERIOD   33   TIME STEP   23
 
 SOLVING FOR HEAD 
                                                   Max.-Head-Change                         Max.-Flux-Residual
  Residual-Control   Outer-Iter.   Inner-Iter.     Column Row Layer    Maximum-Head-Change  Column Row Layer    Maximum-Flux-Residual          L2-NORM 
          0                 1           2             1    1     1       0.2577677355E-02       1    1    1         0.1337392759E+00      0.2652296157E+00
          0                 2           2             1    1     1      -0.2507378118E-03       1    1    1        -0.1337393400E-01      0.2650873675E-01
          0                 3           1             1    1     1       0.1707431416E-04       1    1    1         0.9361757139E-03      0.1854360623E-02

    ------------------------------------------------
       NWT REQUIRED            3 OUTER ITERATIONS 
       AND A TOTAL OF          5 INNER ITERATIONS.
    ------------------------------------------------

 NO OUTPUT CONTROL FOR STRESS PERIOD   33   TIME STEP   24
 
 SOLVING FOR HEAD 
                                                   Max.-Head-Change                         Max.-Flux-Residual
  Residual-Control   Outer-Iter.   Inner-Iter.     Column Row Layer    Maximum-Head-Change  Column Row Layer    Maximum-Flux-Residual          L2-NORM 
          0                 1           2             1    1     1       0.2576413839E-02       1    1    1         0.1336736139E+00      0.2642297179E+00
          0                 2           2             1    1     1      -0.2506149057E-03       1    1    1        -0.1336736777E-01      0.2641083711E-01
          0                 3           1             1    1     1       0.1706594516E-04       1    1    1         0.9357160869E-03      0.1847641015E-02

    ------------------------------------------------
       NWT REQUIRED            3 OUTER ITERATIONS 
       AND A TOTAL OF          5 INNER ITERATIONS.
    ------------------------------------------------

 NO OUTPUT CONTROL FOR STRESS PERIOD   33   TIME STEP   25
 
 SOLVING FOR HEAD 
                                                   Max.-Head-Change                         Max.-Flux-Residual
  Residual-Control   Outer-Iter.   Inner-Iter.     Column Row Layer    Maximum-Head-Change  Column Row Layer    Maximum-Flux-Residual          L2-NORM 
          0                 1           2             1    1     1       0.2575153260E-02       1    1    1         0.1336081031E+00      0.2633310179E+00
          0                 2           2             1    1     1      -0.2504922856E-03       1    1    1        -0.1336081668E-01      0.2632244664E-01
          0                 3           1             1    1     1       0.1705759509E-04       1    1    1         0.9352575082E-03      0.1841653795E-02

    ------------------------------------------------
       NWT REQUIRED            3 OUTER ITERATIONS 
       AND A TOTAL OF          5 INNER ITERATIONS.
    ------------------------------------------------

 NO OUTPUT CONTROL FOR STRESS PERIOD   33   TIME STEP   26
 
 SOLVING FOR HEAD 
                                                   Max.-Head-Change                         Max.-Flux-Residual
  Residual-Control   Outer-Iter.   Inner-Iter.     Column Row Layer    Maximum-Head-Change  Column Row Layer    Maximum-Flux-Residual          L2-NORM 
          0                 1           2             1    1     1       0.2573895587E-02       1    1    1         0.1335427446E+00      0.2625115472E+00
          0                 2           2             1    1     1      -0.2503699481E-03       1    1    1        -0.1335428080E-01      0.2624174474E-01
          0                 3           1             1    1     1       0.1704926443E-04       1    1    1         0.9348000078E-03      0.1835948157E-02

    ------------------------------------------------
       NWT REQUIRED            3 OUTER ITERATIONS 
       AND A TOTAL OF          5 INNER ITERATIONS.
    ------------------------------------------------

 NO OUTPUT CONTROL FOR STRESS PERIOD   33   TIME STEP   27
 
 SOLVING FOR HEAD 
                                                   Max.-Head-Change                         Max.-Flux-Residual
  Residual-Control   Outer-Iter.   Inner-Iter.     Column Row Layer    Maximum-Head-Change  Column Row Layer    Maximum-Flux-Residual          L2-NORM 
          0                 1           2             1    1     1       0.2572640814E-02       1    1    1         0.1334775367E+00      0.2617694492E+00
          0                 2           2             1    1     1      -0.2502478927E-03       1    1    1        -0.1334776001E-01      0.2616861665E-01
          0                 3           1             1    1     1       0.1704095293E-04       1    1    1         0.9343435453E-03      0.1830888533E-02

    ------------------------------------------------
       NWT REQUIRED            3 OUTER ITERATIONS 
       AND A TOTAL OF          5 INNER ITERATIONS.
    ------------------------------------------------

 NO OUTPUT CONTROL FOR STRESS PERIOD   33   TIME STEP   28
 
 SOLVING FOR HEAD 
                                                   Max.-Head-Change                         Max.-Flux-Residual
  Residual-Control   Outer-Iter.   Inner-Iter.     Column Row Layer    Maximum-Head-Change  Column Row Layer    Maximum-Flux-Residual          L2-NORM 
          0                 1           2             1    1     1       0.2571412129E-02       1    1    1         0.1334136839E+00      0.2610973869E+00
          0                 2           2             1    1     1      -0.2501283751E-03       1    1    1        -0.1334137472E-01      0.2610260551E-01
          0                 3           1             1    1     1       0.1703281445E-04       1    1    1         0.9338965811E-03      0.1826587345E-02

    ------------------------------------------------
       NWT REQUIRED            3 OUTER ITERATIONS 
       AND A TOTAL OF          5 INNER ITERATIONS.
    ------------------------------------------------

 NO OUTPUT CONTROL FOR STRESS PERIOD   33   TIME STEP   29
 
 SOLVING FOR HEAD 
                                                   Max.-Head-Change                         Max.-Flux-Residual
  Residual-Control   Outer-Iter.   Inner-Iter.     Column Row Layer    Maximum-Head-Change  Column Row Layer    Maximum-Flux-Residual          L2-NORM 
          0                 1           2             1    1     1       0.2570163098E-02       1    1    1         0.1333487743E+00      0.2604859381E+00
          0                 2           2             1    1     1      -0.2500068779E-03       1    1    1        -0.1333488373E-01      0.2604224321E-01
          0                 3           1             1    1     1       0.1702454059E-04       1    1    1         0.9334422022E-03      0.1822450539E-02

    ------------------------------------------------
       NWT REQUIRED            3 OUTER ITERATIONS 
       AND A TOTAL OF          5 INNER ITERATIONS.
    ------------------------------------------------

 NO OUTPUT CONTROL FOR STRESS PERIOD   33   TIME STEP   30



 STREAM LISTING     PERIOD     33   STEP       30

 LAYER ROW COL. STREAM  RCH.  FLOW INTO     FLOW TO   FLOW OUT OF   OVRLND.     DIRECT     STREAM       STREAM     STREAM     STREAM   STREAMBED  STREAMBED
                SEG.NO.  NO.  STRM. RCH.    AQUIFER    STRM. RCH.    RUNOFF     PRECIP       ET          HEAD       DEPTH      WIDTH   CONDCTNC.   GRADIENT

   1    1    1     1     1    4.5749E+01  3.2289E-01   4.5426E+01  0.000E+00  0.000E+00  0.000E+00  1.09442E+03  1.372E+00  1.641E+01  7.386E-02  1.457E+00
   1    2    2     1     2    4.5426E+01  5.0022E-01   4.4925E+01  0.000E+00  0.000E+00  0.000E+00  1.08943E+03  1.369E+00  1.636E+01  1.145E-01  1.456E+00
   1    3    3     1     3    4.4925E+01  4.2678E-01   4.4499E+01  0.000E+00  0.000E+00  0.000E+00  1.08378E+03  1.366E+00  1.629E+01  9.776E-02  1.455E+00
   1    3    4     1     4    4.4499E+01  3.9314E-01   4.4106E+01  0.000E+00  0.000E+00  0.000E+00  1.07877E+03  1.363E+00  1.624E+01  9.011E-02  1.454E+00
   1    4    5     2     1    4.2106E+01  3.6245E-01   4.1743E+01  0.000E+00  0.000E+00  0.000E+00  1.07358E+03  1.647E+00  1.200E+01  7.800E-02  1.549E+00
   1    5    6     2     2    4.1743E+01  2.7835E-01   4.1465E+01  0.000E+00  0.000E+00  0.000E+00  1.06815E+03  1.639E+00  1.200E+01  6.000E-02  1.546E+00
   1    6    6     2     3    4.1465E+01  2.7796E-01   4.1187E+01  0.000E+00  0.000E+00  0.000E+00  1.06343E+03  1.633E+00  1.200E+01  6.000E-02  1.544E+00
   1    7    6     2     4    4.1187E+01  2.7756E-01   4.0909E+01  0.000E+00  0.000E+00  0.000E+00  1.05870E+03  1.626E+00  1.200E+01  6.000E-02  1.542E+00
   1    8    6     2     5    4.0909E+01  2.7716E-01   4.0632E+01  0.000E+00  0.000E+00  0.000E+00  1.05398E+03  1.619E+00  1.200E+01  6.000E-02  1.540E+00
   1    3    5     3     1    2.0000E+00  2.8252E-01   1.7175E+00  0.000E+00  0.000E+00  0.000E+00  1.07555E+03  1.909E+00  9.636E+00  7.227E-02  1.955E+00
   1    3    6     3     2    1.7175E+00  2.4905E-01   1.4684E+00  0.000E+00  0.000E+00  0.000E+00  1.07264E+03  1.727E+00  8.909E+00  6.682E-02  1.864E+00
   1    3    7     3     3    1.4684E+00  1.9718E-01   1.2712E+00  0.000E+00  0.000E+00  0.000E+00  1.06987E+03  1.555E+00  8.218E+00  5.547E-02  1.777E+00
   1    4    8     3     4    1.2712E+00  2.2567E-01   1.0456E+00  0.000E+00  0.000E+00  0.000E+00  1.06682E+03  1.364E+00  7.455E+00  6.709E-02  1.682E+00
   1    5    8     3     5    1.0456E+00  1.5790E-01   8.8768E-01  0.000E+00  0.000E+00  0.000E+00  1.06362E+03  1.164E+00  6.655E+00  4.991E-02  1.582E+00
   1    6    8     3     6    8.8768E-01  5.5980E-02   8.3170E-01  0.000E+00  0.000E+00  0.000E+00  1.06158E+03  1.036E+00  6.145E+00  1.844E-02  1.518E+00
   1    5   10     4     1    1.0000E+01  9.0919E-02   9.9091E+00  0.000E+00  0.000E+00  0.000E+00  1.07836E+03  6.368E-01  1.000E+01  2.500E-02  1.212E+00
   1    5    9     4     2    9.9091E+00  1.8158E-01   9.7275E+00  0.000E+00  0.000E+00  0.000E+00  1.07154E+03  6.315E-01  1.000E+01  5.000E-02  1.211E+00
   1    6    8     4     3    9.7275E+00  1.2689E-01   9.6006E+00  0.000E+00  0.000E+00  0.000E+00  1.06381E+03  6.256E-01  1.000E+01  3.500E-02  1.209E+00
   1    6    8     5     1    1.0432E+01  2.2686E-01   1.0205E+01  0.000E+00  0.000E+00  0.000E+00  1.05868E+03  6.790E-01  1.542E+01  6.166E-02  1.226E+00
   1    7    7     5     2    1.0205E+01  2.7894E-01   9.9265E+00  0.000E+00  0.000E+00  0.000E+00  1.05417E+03  6.732E-01  1.519E+01  7.594E-02  1.224E+00
   1    8    7     5     3    9.9265E+00  1.9221E-01   9.7343E+00  0.000E+00  0.000E+00  0.000E+00  1.04992E+03  6.676E-01  1.497E+01  5.241E-02  1.223E+00
   1    8    6     5     4    9.7343E+00  1.3577E-01   9.5985E+00  0.000E+00  0.000E+00  0.000E+00  1.04691E+03  6.637E-01  1.482E+01  3.706E-02  1.221E+00
   1    9    6     6     1    5.0231E+01  2.9116E-01   4.9939E+01  0.000E+00  0.000E+00  0.000E+00  1.04458E+03  1.853E+00  1.200E+01  6.000E-02  1.618E+00
   1   10    7     6     2    4.9939E+01  2.9077E-01   4.9649E+01  0.000E+00  0.000E+00  0.000E+00  1.04003E+03  1.846E+00  1.200E+01  6.000E-02  1.615E+00
   1   11    7     6     3    4.9649E+01  2.9038E-01   4.9358E+01  0.000E+00  0.000E+00  0.000E+00  1.03548E+03  1.840E+00  1.200E+01  6.000E-02  1.613E+00
   1   12    7     6     4    4.9358E+01  2.8999E-01   4.9068E+01  0.000E+00  0.000E+00  0.000E+00  1.03092E+03  1.833E+00  1.200E+01  6.000E-02  1.611E+00
   1   13    7     6     5    4.9068E+01  1.2471E-02   4.9056E+01  0.000E+00  0.000E+00  0.000E+00  1.02774E+03  1.830E+00  1.200E+01  2.400E-02  1.732E-01
   1   14    9     7     1    1.5000E+02  1.3330E+00   1.4867E+02  0.000E+00  0.000E+00  0.000E+00  1.03987E+03  2.288E+00  5.529E+01  5.593E-01  7.945E-01
   1   13    8     7     2    1.4867E+02  1.8016E+00   1.4687E+02  0.000E+00  0.000E+00  0.000E+00  1.03478E+03  2.279E+00  5.526E+01  6.148E-01  9.768E-01
   1   13    7     7     3    1.4687E+02  1.3799E+00   1.4549E+02  0.000E+00  0.000E+00  0.000E+00  1.02969E+03  2.271E+00  5.522E+01  5.585E-01  8.236E-01
   1   13    6     8     1    1.9454E+02  9.2384E-01   1.9362E+02  0.000E+00  0.000E+00  0.000E+00  1.02498E+03  3.103E+00  4.499E+01  4.584E-01  6.717E-01
   1   13    5     8     2    1.9362E+02  1.4447E-01   1.9347E+02  0.000E+00  0.000E+00  0.000E+00  1.01872E+03  3.099E+00  4.494E+01  4.580E-01  1.052E-01
   1   13    4     8     3    1.9347E+02 -2.4426E+00   1.9592E+02  0.000E+00  0.000E+00  0.000E+00  1.01248E+03  3.106E+00  4.504E+01  4.590E+00 -1.774E-01
   1   13    3     8     4    1.9592E+02 -3.5355E+00   1.9945E+02  0.000E+00  0.000E+00  0.000E+00  1.00625E+03  3.124E+00  4.530E+01  4.616E+00 -2.553E-01
   1   13    2     8     5    1.9945E+02 -2.5746E+00   2.0203E+02  0.000E+00  0.000E+00  0.000E+00  1.00002E+03  3.142E+00  4.556E+01  4.643E+00 -1.848E-01
   1   13    1     8     6    2.0203E+02 -2.0042E+00   2.0403E+02  0.000E+00  0.000E+00  0.000E+00  9.95030E+02  3.155E+00  4.575E+01  2.797E+00 -2.388E-01
   1    8    6     9     1    0.0000E+00  0.0000E+00   0.0000E+00  0.000E+00  0.000E+00  0.000E+00  1.07875E+03  0.000E+00  4.000E+00  0.000E+00  1.000E+00
   1    8    5     9     2    0.0000E+00  0.0000E+00   0.0000E+00  0.000E+00  0.000E+00  0.000E+00  1.07825E+03  0.000E+00  4.000E+00  0.000E+00  1.000E+00





UNSATURATED ZONE PACKAGE VOLUMETRIC BUDGET FOR  TIME STEP    30 STRESS PERIOD   33
  ------------------------------------------------------------------------------



     CUMULATIVE VOLUMES      L**3       RATES FOR THIS TIME STEP      L**3/T
     ------------------                 ------------------------

           IN:                                      IN:
           ---                                      ---
        INFILTRATION =   371857229.5198          INFILTRATION =           4.4075

          OUT:                                     OUT:
          ----                                     ----
              UZF ET =   279722233.4319                UZF ET =           4.4075
        UZF RECHARGE =     1282289.7950          UZF RECHARGE =       0.0000E+00

            IN - OUT =    90852706.2929              IN - OUT =       0.0000E+00

          STORAGE:                                 STORAGE:
          --------                                 --------
      STORAGE CHANGE =    90853867.9730        STORAGE CHANGE =      -7.8846E-14

 PERCENT DISCREPANCY IS DIFFERENCE BETWEEN IN-OUT MINUS CHANGE IN STORAGE
 DIVIDED BY THE AVERAGE OF IN AND OUT TIMES 100

 PERCENT DISCREPANCY =          -0.00     PERCENT DISCREPANCY =           0.00






1
  VOLUMETRIC BUDGET FOR ENTIRE MODEL AT END OF TIME STEP   30, STRESS PERIOD  33
  ------------------------------------------------------------------------------

     CUMULATIVE VOLUMES      L**3       RATES FOR THIS TIME STEP      L**3/T
     ------------------                 ------------------------

           IN:                                      IN:
           ---                                      ---
               AG WELLS  =           0.0000                 AG WELLS  =           0.0000
        DIVERSION SEGMEN =      848802.5000          DIVERSION SEGMEN =           0.0000
    TS         GW IRRIGA =           0.0000      TS         GW IRRIGA =           0.0000
    TION         SW IRRI =           0.0000      TION         SW IRRI =           0.0000
    GATION      SYSTEM L =           0.0000      GATION      SYSTEM L =           0.0000
    OSSES GW      SYSTEM =           0.1856      OSSES GW      SYSTEM =           0.0000

                TOTAL IN =      848802.6875                  TOTAL IN =           0.0000

          OUT:                                     OUT:
          ----                                     ----
               AG WELLS  =           0.0000                 AG WELLS  =           0.0000
        DIVERSION SEGMEN =           0.0000          DIVERSION SEGMEN =           0.0000
    TS         GW IRRIGA =           0.0000      TS         GW IRRIGA =           0.0000
    TION         SW IRRI =      848819.6875      TION         SW IRRI =           0.0000
    GATION      SYSTEM L =           0.0000      GATION      SYSTEM L =           0.0000
    OSSES GW      SYSTEM =           0.0000      OSSES GW      SYSTEM =           0.0000

               TOTAL OUT =      848819.6875                 TOTAL OUT =           0.0000

                IN - OUT =         -17.0000                  IN - OUT =           0.0000

     PERCENT DISCREPANCY =          -0.00         PERCENT DISCREPANCY =           0.00



1
  VOLUMETRIC BUDGET FOR ENTIRE MODEL AT END OF TIME STEP   30, STRESS PERIOD  33
  ------------------------------------------------------------------------------

     CUMULATIVE VOLUMES      L**3       RATES FOR THIS TIME STEP      L**3/T
     ------------------                 ------------------------

           IN:                                      IN:
           ---                                      ---
             STORAGE     =    42573168.0000               STORAGE     =           0.1464
       CONSTANT HEAD     =           0.0000         CONSTANT HEAD     =           0.0000
     HEAD DEP BOUNDS     =    24064022.0000       HEAD DEP BOUNDS     =           0.2856
      STREAM LEAKAGE     =  1010824192.0000        STREAM LEAKAGE     =          12.2757
        UZF RECHARGE     =     1282289.6250          UZF RECHARGE     =           0.0000
               GW ET     =           0.0000                 GW ET     =           0.0000
     SURFACE LEAKAGE     =           0.0000       SURFACE LEAKAGE     =           0.0000
           AG WELLS      =           0.0000             AG WELLS      =           0.0000

                TOTAL IN =  1078743680.0000                  TOTAL IN =          12.7077

          OUT:                                     OUT:
          ----                                     ----
             STORAGE     =   136307408.0000               STORAGE     =           1.3988
       CONSTANT HEAD     =           0.0000         CONSTANT HEAD     =           0.0000
     HEAD DEP BOUNDS     =    24646482.0000       HEAD DEP BOUNDS     =           0.2944
      STREAM LEAKAGE     =   901282752.0000        STREAM LEAKAGE     =          10.5569
        UZF RECHARGE     =           0.0000          UZF RECHARGE     =           0.0000
               GW ET     =    16526219.0000                 GW ET     =           0.4579
     SURFACE LEAKAGE     =           0.0000       SURFACE LEAKAGE     =           0.0000
           AG WELLS      =           0.0000             AG WELLS      =           0.0000

               TOTAL OUT =  1078762880.0000                 TOTAL OUT =          12.7081

                IN - OUT =      -19200.0000                  IN - OUT =      -3.5286E-04

     PERCENT DISCREPANCY =          -0.00         PERCENT DISCREPANCY =          -0.00






         TIME SUMMARY AT END OF TIME STEP   30 IN STRESS PERIOD   33
                    SECONDS     MINUTES      HOURS       DAYS        YEARS
                    -----------------------------------------------------------
   TIME STEP LENGTH  87667.      1461.1      24.352      1.0147     2.77799E-03
 STRESS PERIOD TIME 2.63000E+06  43833.      730.56      30.440     8.33397E-02
         TOTAL TIME 8.42463E+07 1.40410E+06  23402.      975.07      2.6696    
1
1
                            STRESS PERIOD NO.   34, LENGTH =   2630000.    
                            -----------------------------------------------

                              NUMBER OF TIME STEPS =    30

                               MULTIPLIER FOR DELT =     1.000

                            INITIAL TIME STEP SIZE =   87666.66    

 REUSING NON-PARAMETER GHB CELLS FROM LAST STRESS PERIOD

      2 GHB CELLS

 REUSING STREAM SEGMENT DATA FROM LAST STRESS PERIOD



            AREAL INFILTRATION RATE
 READING ON UNIT   19 WITH FORMAT: (10F4.0)            

            1           2           3           4           5           6           7           8           9          10
 ........................................................................................................................
   1   1.2000E-09   0.000       0.000       0.000       0.000       0.000       0.000       0.000       0.000       0.000    
   2   2.1000E-09  2.0000E-09  8.0000E-10  8.5000E-09   0.000       0.000       0.000       0.000       0.000       0.000    
   3   5.0000E-10  1.1000E-09  8.8000E-09  5.5000E-09   0.000       0.000       0.000       0.000       0.000       0.000    
   4   8.5000E-09  1.1000E-09  1.1000E-09  1.1000E-09  2.0000E-09   0.000       0.000       0.000       0.000       0.000    
   5   8.5000E-09  1.1000E-09  1.1000E-09  1.1000E-09  1.1000E-09   0.000       0.000       0.000       0.000       0.000    
   6   8.5000E-09  5.2000E-09  2.1000E-09  1.1000E-09  1.5000E-09   0.000       0.000       0.000       0.000       0.000    
   7   8.5000E-09  5.2000E-09  2.1000E-09  1.2000E-09  2.0000E-09   0.000       0.000       0.000       0.000       0.000    
   8   5.0000E-10  5.2000E-09  2.1000E-09  1.2000E-09  5.0000E-09   0.000       0.000       0.000       0.000       0.000    
   9   5.0000E-10  5.2000E-09  2.1000E-09  1.2000E-09  5.0000E-09   0.000       0.000       0.000       0.000       0.000    
  10   5.0000E-10  5.2000E-09  2.1000E-09  1.2000E-09  5.8000E-09   0.000       0.000       0.000       0.000       0.000    
  11   1.0000E-10  1.1000E-09  1.1000E-09  1.2000E-09  5.0000E-09   0.000       0.000       0.000       0.000       0.000    
  12   1.1000E-09  1.1000E-09  1.1000E-09  1.1000E-09  2.0000E-09   0.000       0.000       0.000       0.000       0.000    
  13   1.1000E-09  2.2000E-09  2.2000E-09  2.1000E-09  1.0000E-09   0.000       0.000       0.000       0.000       0.000    
  14   2.0000E-10  5.5000E-09  5.5000E-09  5.2000E-09  1.0000E-09   0.000       0.000       0.000       0.000       0.000    
  15    0.000      8.8000E-09  8.8000E-09   0.000       0.000       0.000       0.000       0.000       0.000       0.000    

                  ET RATE =  7.500000E-08

 USING ET EXTINCTION DEPTH FROM PREVIOUS STRESS PERIOD. CURRENT PERIOD IS:      34

 USING EXTINCTION WATER CONTENT FROM PREVIOUS STRESS PERIOD. CURRENT PERIOD IS:      34

 USING AIR ENTRY PRESSURE FROM PREVIOUS STRESS PERIOD. CURRENT PERIOD IS:      34

 USING ROOT PRESSURE HEAD FROM PREVIOUS STRESS PERIOD. CURRENT PERIOD IS:      34

 USING ROOT ACTIVITY FROM PREVIOUS STRESS PERIOD. CURRENT PERIOD IS:      34

 PROCESSING AG STRESS PERIOD DATA

 READING AG STRESS PERIOD DATA

 READING IRRIGATION SEGMENT

 READING IRRIGATION WELL

 READING SUPPLEMENTAL WELL

 END PROCESSING AG STRESS PERIOD DATA OPTIONS
 
 SOLVING FOR HEAD 
                                                   Max.-Head-Change                         Max.-Flux-Residual
  Residual-Control   Outer-Iter.   Inner-Iter.     Column Row Layer    Maximum-Head-Change  Column Row Layer    Maximum-Flux-Residual          L2-NORM 
          0                 1           2             3   13     1       0.3070605383E-02       3   13    1         0.1862173076E+00      0.3608756797E+00
          0                 2           2             3   13     1      -0.2922620893E-03       3   13    1        -0.1822422356E-01      0.3588083719E-01
          0                 3           1             3   13     1       0.1928963598E-04       3   13    1         0.1236740442E-02      0.2492607722E-02

    ------------------------------------------------
       NWT REQUIRED            3 OUTER ITERATIONS 
       AND A TOTAL OF          5 INNER ITERATIONS.
    ------------------------------------------------

 NO OUTPUT CONTROL FOR STRESS PERIOD   34   TIME STEP    1
 
 SOLVING FOR HEAD 
                                                   Max.-Head-Change                         Max.-Flux-Residual
  Residual-Control   Outer-Iter.   Inner-Iter.     Column Row Layer    Maximum-Head-Change  Column Row Layer    Maximum-Flux-Residual          L2-NORM 
          0                 1           2             1    1     1       0.2406750099E-02       1    1    1         0.1248599181E+00      0.2967552690E+00
          0                 2           2             1    1     1      -0.2341112255E-03       1    1    1        -0.1248599655E-01      0.2965156091E-01
          0                 3           1             1    1     1       0.1594210591E-04       1    1    1         0.8740200963E-03      0.2071988632E-02

    ------------------------------------------------
       NWT REQUIRED            3 OUTER ITERATIONS 
       AND A TOTAL OF          5 INNER ITERATIONS.
    ------------------------------------------------

 NO OUTPUT CONTROL FOR STRESS PERIOD   34   TIME STEP    2
 
 SOLVING FOR HEAD 
                                                   Max.-Head-Change                         Max.-Flux-Residual
  Residual-Control   Outer-Iter.   Inner-Iter.     Column Row Layer    Maximum-Head-Change  Column Row Layer    Maximum-Flux-Residual          L2-NORM 
          0                 1           2             2   13     1      -0.3908475107E-02       2   13    1        -0.2214187494E+00      0.3652602243E+00
          0                 2           2             2   13     1       0.3723346157E-03       2   13    1         0.2168574025E-01      0.3603436695E-01
          0                 3           1             2   13     1      -0.2470748372E-04       2   13    1        -0.1479412099E-02      0.2479338138E-02

    ------------------------------------------------
       NWT REQUIRED            3 OUTER ITERATIONS 
       AND A TOTAL OF          5 INNER ITERATIONS.
    ------------------------------------------------

 NO OUTPUT CONTROL FOR STRESS PERIOD   34   TIME STEP    3
 
 SOLVING FOR HEAD 
                                                   Max.-Head-Change                         Max.-Flux-Residual
  Residual-Control   Outer-Iter.   Inner-Iter.     Column Row Layer    Maximum-Head-Change  Column Row Layer    Maximum-Flux-Residual          L2-NORM 
          0                 1           2             2   13     1      -0.3587730310E-02       2   13    1        -0.2032195150E+00      0.3466866578E+00
          0                 2           2             2   13     1       0.3419300358E-03       2   13    1         0.1991196835E-01      0.3423704748E-01
          0                 3           1             2   13     1      -0.2262513654E-04       2   13    1        -0.1354486551E-02      0.2356043890E-02

    ------------------------------------------------
       NWT REQUIRED            3 OUTER ITERATIONS 
       AND A TOTAL OF          5 INNER ITERATIONS.
    ------------------------------------------------

 NO OUTPUT CONTROL FOR STRESS PERIOD   34   TIME STEP    4
 
 SOLVING FOR HEAD 
                                                   Max.-Head-Change                         Max.-Flux-Residual
  Residual-Control   Outer-Iter.   Inner-Iter.     Column Row Layer    Maximum-Head-Change  Column Row Layer    Maximum-Flux-Residual          L2-NORM 
          0                 1           2             2   13     1      -0.3293731256E-02       2   13    1        -0.1865389755E+00      0.3303646613E+00
          0                 2           2             2   13     1       0.3140771230E-03       2   13    1         0.1828724159E-01      0.3265868042E-01
          0                 3           1             2   13     1      -0.2080149301E-04       2   13    1        -0.1245124938E-02      0.2250626664E-02

    ------------------------------------------------
       NWT REQUIRED            3 OUTER ITERATIONS 
       AND A TOTAL OF          5 INNER ITERATIONS.
    ------------------------------------------------

 NO OUTPUT CONTROL FOR STRESS PERIOD   34   TIME STEP    5
 
 SOLVING FOR HEAD 
                                                   Max.-Head-Change                         Max.-Flux-Residual
  Residual-Control   Outer-Iter.   Inner-Iter.     Column Row Layer    Maximum-Head-Change  Column Row Layer    Maximum-Flux-Residual          L2-NORM 
          0                 1           2             2   13     1      -0.3024127679E-02       2   13    1        -0.1712434628E+00      0.3159939606E+00
          0                 2           2             2   13     1       0.2885076236E-03       2   13    1         0.1679577404E-01      0.3126970721E-01
          0                 3           1             2   13     1      -0.1913427513E-04       2   13    1        -0.1145145946E-02      0.2158316238E-02

    ------------------------------------------------
       NWT REQUIRED            3 OUTER ITERATIONS 
       AND A TOTAL OF          5 INNER ITERATIONS.
    ------------------------------------------------

 NO OUTPUT CONTROL FOR STRESS PERIOD   34   TIME STEP    6
 
 SOLVING FOR HEAD 
                                                   Max.-Head-Change                         Max.-Flux-Residual
  Residual-Control   Outer-Iter.   Inner-Iter.     Column Row Layer    Maximum-Head-Change  Column Row Layer    Maximum-Flux-Residual          L2-NORM 
          0                 1           2             2   13     1      -0.2776922286E-02       2   13    1        -0.1572196896E+00      0.3033251182E+00
          0                 2           2             2   13     1       0.2649884657E-03       2   13    1         0.1542401208E-01      0.3004245122E-01
          0                 3           1             2   13     1      -0.1756854298E-04       2   13    1        -0.1051255046E-02      0.2075633574E-02

    ------------------------------------------------
       NWT REQUIRED            3 OUTER ITERATIONS 
       AND A TOTAL OF          5 INNER ITERATIONS.
    ------------------------------------------------

 NO OUTPUT CONTROL FOR STRESS PERIOD   34   TIME STEP    7
 
 SOLVING FOR HEAD 
                                                   Max.-Head-Change                         Max.-Flux-Residual
  Residual-Control   Outer-Iter.   Inner-Iter.     Column Row Layer    Maximum-Head-Change  Column Row Layer    Maximum-Flux-Residual          L2-NORM 
          0                 1           2             2   13     1      -0.2550275328E-02       2   13    1        -0.1443630973E+00      0.2921331485E+00
          0                 2           2             2   13     1       0.2434581967E-03       2   13    1         0.1416835269E-01      0.2896013746E-01
          0                 3           1             2   13     1      -0.1605849556E-04       2   13    1        -0.9606823069E-03      0.2000954657E-02

    ------------------------------------------------
       NWT REQUIRED            3 OUTER ITERATIONS 
       AND A TOTAL OF          5 INNER ITERATIONS.
    ------------------------------------------------

 NO OUTPUT CONTROL FOR STRESS PERIOD   34   TIME STEP    8
 
 SOLVING FOR HEAD 
                                                   Max.-Head-Change                         Max.-Flux-Residual
  Residual-Control   Outer-Iter.   Inner-Iter.     Column Row Layer    Maximum-Head-Change  Column Row Layer    Maximum-Flux-Residual          L2-NORM 
          0                 1           2             2   13     1      -0.2342498347E-02       2   13    1        -0.1325778804E+00      0.2822326472E+00
          0                 2           2             2   13     1       0.2236845717E-03       2   13    1         0.1301524112E-01      0.2800156312E-01
          0                 3           1             2   13     1      -0.1485177913E-04       2   13    1        -0.8883677274E-03      0.1939490426E-02

    ------------------------------------------------
       NWT REQUIRED            3 OUTER ITERATIONS 
       AND A TOTAL OF          5 INNER ITERATIONS.
    ------------------------------------------------

 NO OUTPUT CONTROL FOR STRESS PERIOD   34   TIME STEP    9
 
 SOLVING FOR HEAD 
                                                   Max.-Head-Change                         Max.-Flux-Residual
  Residual-Control   Outer-Iter.   Inner-Iter.     Column Row Layer    Maximum-Head-Change  Column Row Layer    Maximum-Flux-Residual          L2-NORM 
          0                 1           2             2   13     1      -0.2151995989E-02       2   13    1        -0.1217733991E+00      0.2734651300E+00
          0                 2           2             2   13     1       0.2055382524E-03       2   13    1         0.1195710269E-01      0.2715273987E-01
          0                 3           1             2   13     1      -0.1363957437E-04       2   13    1        -0.8156942695E-03      0.1882350433E-02

    ------------------------------------------------
       NWT REQUIRED            3 OUTER ITERATIONS 
       AND A TOTAL OF          5 INNER ITERATIONS.
    ------------------------------------------------

 NO OUTPUT CONTROL FOR STRESS PERIOD   34   TIME STEP   10
 
 SOLVING FOR HEAD 
                                                   Max.-Head-Change                         Max.-Flux-Residual
  Residual-Control   Outer-Iter.   Inner-Iter.     Column Row Layer    Maximum-Head-Change  Column Row Layer    Maximum-Flux-Residual          L2-NORM 
          0                 1           2             2    1     1       0.2009543412E-02       2   13    1        -0.1118689424E+00      0.2656871700E+00
          0                 2           2             2    1     1      -0.1954738871E-03       2   13    1         0.1098746343E-01      0.2639911193E-01
          0                 3           1             2    1     1       0.1331104844E-04       2   13    1        -0.7506985585E-03      0.1832284688E-02

    ------------------------------------------------
       NWT REQUIRED            3 OUTER ITERATIONS 
       AND A TOTAL OF          5 INNER ITERATIONS.
    ------------------------------------------------

 NO OUTPUT CONTROL FOR STRESS PERIOD   34   TIME STEP   11
 
 SOLVING FOR HEAD 
                                                   Max.-Head-Change                         Max.-Flux-Residual
  Residual-Control   Outer-Iter.   Inner-Iter.     Column Row Layer    Maximum-Head-Change  Column Row Layer    Maximum-Flux-Residual          L2-NORM 
          0                 1           2             2    1     1       0.2007900997E-02       2    1    1         0.1042104198E+00      0.2587720081E+00
          0                 2           2             2    1     1      -0.1953141238E-03       2    1    1        -0.1042104931E-01      0.2572936371E-01
          0                 3           1             2    1     1       0.1330016904E-04       2    1    1         0.7294736924E-03      0.1786843623E-02

    ------------------------------------------------
       NWT REQUIRED            3 OUTER ITERATIONS 
       AND A TOTAL OF          5 INNER ITERATIONS.
    ------------------------------------------------

 NO OUTPUT CONTROL FOR STRESS PERIOD   34   TIME STEP   12
 
 SOLVING FOR HEAD 
                                                   Max.-Head-Change                         Max.-Flux-Residual
  Residual-Control   Outer-Iter.   Inner-Iter.     Column Row Layer    Maximum-Head-Change  Column Row Layer    Maximum-Flux-Residual          L2-NORM 
          0                 1           2             2    1     1       0.2006271884E-02       2    1    1         0.1041252629E+00      0.2526221412E+00
          0                 2           2             2    1     1      -0.1951556550E-03       2    1    1        -0.1041253358E-01      0.2513315757E-01
          0                 3           1             2    1     1       0.1328937793E-04       2    1    1         0.7288775910E-03      0.1746950888E-02

    ------------------------------------------------
       NWT REQUIRED            3 OUTER ITERATIONS 
       AND A TOTAL OF          5 INNER ITERATIONS.
    ------------------------------------------------

 NO OUTPUT CONTROL FOR STRESS PERIOD   34   TIME STEP   13
 
 SOLVING FOR HEAD 
                                                   Max.-Head-Change                         Max.-Flux-Residual
  Residual-Control   Outer-Iter.   Inner-Iter.     Column Row Layer    Maximum-Head-Change  Column Row Layer    Maximum-Flux-Residual          L2-NORM 
          0                 1           2             2    1     1       0.2004655974E-02       2    1    1         0.1040407957E+00      0.2471418945E+00
          0                 2           2             2    1     1      -0.1949984703E-03       2    1    1        -0.1040408681E-01      0.2460105551E-01
          0                 3           1             2    1     1       0.1327867461E-04       2    1    1         0.7282863273E-03      0.1711377945E-02

    ------------------------------------------------
       NWT REQUIRED            3 OUTER ITERATIONS 
       AND A TOTAL OF          5 INNER ITERATIONS.
    ------------------------------------------------

 NO OUTPUT CONTROL FOR STRESS PERIOD   34   TIME STEP   14
 
 SOLVING FOR HEAD 
                                                   Max.-Head-Change                         Max.-Flux-Residual
  Residual-Control   Outer-Iter.   Inner-Iter.     Column Row Layer    Maximum-Head-Change  Column Row Layer    Maximum-Flux-Residual          L2-NORM 
          0                 1           2             2    1     1       0.2003053074E-02       2    1    1         0.1039570131E+00      0.2422533471E+00
          0                 2           2             2    1     1      -0.1948425512E-03       2    1    1        -0.1039570851E-01      0.2412698691E-01
          0                 3           1             2    1     1       0.1326805721E-04       2    1    1         0.7276998331E-03      0.1679596749E-02

    ------------------------------------------------
       NWT REQUIRED            3 OUTER ITERATIONS 
       AND A TOTAL OF          5 INNER ITERATIONS.
    ------------------------------------------------

 NO OUTPUT CONTROL FOR STRESS PERIOD   34   TIME STEP   15
 
 SOLVING FOR HEAD 
                                                   Max.-Head-Change                         Max.-Flux-Residual
  Residual-Control   Outer-Iter.   Inner-Iter.     Column Row Layer    Maximum-Head-Change  Column Row Layer    Maximum-Flux-Residual          L2-NORM 
          0                 1           2             2    1     1       0.2001462991E-02       2    1    1         0.1038739051E+00      0.2378808582E+00
          0                 2           2             2    1     1      -0.1946878784E-03       2    1    1        -0.1038739763E-01      0.2370148828E-01
          0                 3           1             2    1     1       0.1325752478E-04       2    1    1         0.7271180937E-03      0.1651035453E-02

    ------------------------------------------------
       NWT REQUIRED            3 OUTER ITERATIONS 
       AND A TOTAL OF          5 INNER ITERATIONS.
    ------------------------------------------------

 NO OUTPUT CONTROL FOR STRESS PERIOD   34   TIME STEP   16
 
 SOLVING FOR HEAD 
                                                   Max.-Head-Change                         Max.-Flux-Residual
  Residual-Control   Outer-Iter.   Inner-Iter.     Column Row Layer    Maximum-Head-Change  Column Row Layer    Maximum-Flux-Residual          L2-NORM 
          0                 1           2             2    1     1       0.1999885438E-02       2    1    1         0.1037914616E+00      0.2339732250E+00
          0                 2           2             2    1     1      -0.1945344246E-03       2    1    1        -0.1037915323E-01      0.2332187116E-01
          0                 3           1             2    1     1       0.1324707518E-04       2    1    1         0.7265409701E-03      0.1625517287E-02

    ------------------------------------------------
       NWT REQUIRED            3 OUTER ITERATIONS 
       AND A TOTAL OF          5 INNER ITERATIONS.
    ------------------------------------------------

 NO OUTPUT CONTROL FOR STRESS PERIOD   34   TIME STEP   17
 
 SOLVING FOR HEAD 
                                                   Max.-Head-Change                         Max.-Flux-Residual
  Residual-Control   Outer-Iter.   Inner-Iter.     Column Row Layer    Maximum-Head-Change  Column Row Layer    Maximum-Flux-Residual          L2-NORM 
          0                 1           2             2    1     1       0.1998320328E-02       2    1    1         0.1037096677E+00      0.2304639701E+00
          0                 2           2             2    1     1      -0.1943821813E-03       2    1    1        -0.1037097380E-01      0.2297988521E-01
          0                 3           1             2    1     1       0.1323670795E-04       2    1    1         0.7259684014E-03      0.1601915371E-02

    ------------------------------------------------
       NWT REQUIRED            3 OUTER ITERATIONS 
       AND A TOTAL OF          5 INNER ITERATIONS.
    ------------------------------------------------

 NO OUTPUT CONTROL FOR STRESS PERIOD   34   TIME STEP   18
 
 SOLVING FOR HEAD 
                                                   Max.-Head-Change                         Max.-Flux-Residual
  Residual-Control   Outer-Iter.   Inner-Iter.     Column Row Layer    Maximum-Head-Change  Column Row Layer    Maximum-Flux-Residual          L2-NORM 
          0                 1           2             2    1     1       0.1996767481E-02       2    1    1         0.1036285191E+00      0.2273158406E+00
          0                 2           2             2    1     1      -0.1942311312E-03       2    1    1        -0.1036285890E-01      0.2267343768E-01
          0                 3           1             2    1     1       0.1322642236E-04       2    1    1         0.7254003648E-03      0.1581899744E-02

    ------------------------------------------------
       NWT REQUIRED            3 OUTER ITERATIONS 
       AND A TOTAL OF          5 INNER ITERATIONS.
    ------------------------------------------------

 NO OUTPUT CONTROL FOR STRESS PERIOD   34   TIME STEP   19
 
 SOLVING FOR HEAD 
                                                   Max.-Head-Change                         Max.-Flux-Residual
  Residual-Control   Outer-Iter.   Inner-Iter.     Column Row Layer    Maximum-Head-Change  Column Row Layer    Maximum-Flux-Residual          L2-NORM 
          0                 1           2             2    1     1       0.1995226815E-02       2    1    1         0.1035480062E+00      0.2244869921E+00
          0                 2           2             2    1     1      -0.1940812659E-03       2    1    1        -0.1035480756E-01      0.2239821749E-01
          0                 3           1             2    1     1       0.1321621701E-04       2    1    1         0.7248367759E-03      0.1563267605E-02

    ------------------------------------------------
       NWT REQUIRED            3 OUTER ITERATIONS 
       AND A TOTAL OF          5 INNER ITERATIONS.
    ------------------------------------------------

 NO OUTPUT CONTROL FOR STRESS PERIOD   34   TIME STEP   20
 
 SOLVING FOR HEAD 
                                                   Max.-Head-Change                         Max.-Flux-Residual
  Residual-Control   Outer-Iter.   Inner-Iter.     Column Row Layer    Maximum-Head-Change  Column Row Layer    Maximum-Flux-Residual          L2-NORM 
          0                 1           2             2    1     1       0.1993676188E-02       2    1    1         0.1034669884E+00      0.2219331258E+00
          0                 2           2             2    1     1      -0.1939304313E-03       2    1    1        -0.1034670573E-01      0.2214841895E-01
          0                 3           1             2    1     1       0.1320594586E-04       2    1    1         0.7242696539E-03      0.1545950724E-02

    ------------------------------------------------
       NWT REQUIRED            3 OUTER ITERATIONS 
       AND A TOTAL OF          5 INNER ITERATIONS.
    ------------------------------------------------

 NO OUTPUT CONTROL FOR STRESS PERIOD   34   TIME STEP   21
 
 SOLVING FOR HEAD 
                                                   Max.-Head-Change                         Max.-Flux-Residual
  Residual-Control   Outer-Iter.   Inner-Iter.     Column Row Layer    Maximum-Head-Change  Column Row Layer    Maximum-Flux-Residual          L2-NORM 
          0                 1           2             2    1     1       0.1992159211E-02       2    1    1         0.1033877271E+00      0.2196311265E+00
          0                 2           2             2    1     1      -0.1937828699E-03       2    1    1        -0.1033877956E-01      0.2192409764E-01
          0                 3           1             2    1     1       0.1319589743E-04       2    1    1         0.7237148147E-03      0.1530763335E-02

    ------------------------------------------------
       NWT REQUIRED            3 OUTER ITERATIONS 
       AND A TOTAL OF          5 INNER ITERATIONS.
    ------------------------------------------------

 NO OUTPUT CONTROL FOR STRESS PERIOD   34   TIME STEP   22
 
 SOLVING FOR HEAD 
                                                   Max.-Head-Change                         Max.-Flux-Residual
  Residual-Control   Outer-Iter.   Inner-Iter.     Column Row Layer    Maximum-Head-Change  Column Row Layer    Maximum-Flux-Residual          L2-NORM 
          0                 1           2             2    1     1       0.1990653794E-02       2    1    1         0.1033090741E+00      0.2175444277E+00
          0                 2           2             2    1     1      -0.1936364330E-03       2    1    1        -0.1033091420E-01      0.2172006383E-01
          0                 3           1             2    1     1       0.1318592591E-04       2    1    1         0.7231642442E-03      0.1516717485E-02

    ------------------------------------------------
       NWT REQUIRED            3 OUTER ITERATIONS 
       AND A TOTAL OF          5 INNER ITERATIONS.
    ------------------------------------------------

 NO OUTPUT CONTROL FOR STRESS PERIOD   34   TIME STEP   23
 
 SOLVING FOR HEAD 
                                                   Max.-Head-Change                         Max.-Flux-Residual
  Residual-Control   Outer-Iter.   Inner-Iter.     Column Row Layer    Maximum-Head-Change  Column Row Layer    Maximum-Flux-Residual          L2-NORM 
          0                 1           2             2    1     1       0.1989159768E-02       2    1    1         0.1032310204E+00      0.2156631629E+00
          0                 2           2             2    1     1      -0.1934911048E-03       2    1    1        -0.1032310881E-01      0.2153586833E-01
          0                 3           1             2    1     1       0.1317602965E-04       2    1    1         0.7226178623E-03      0.1504577326E-02

    ------------------------------------------------
       NWT REQUIRED            3 OUTER ITERATIONS 
       AND A TOTAL OF          5 INNER ITERATIONS.
    ------------------------------------------------

 NO OUTPUT CONTROL FOR STRESS PERIOD   34   TIME STEP   24
 
 SOLVING FOR HEAD 
                                                   Max.-Head-Change                         Max.-Flux-Residual
  Residual-Control   Outer-Iter.   Inner-Iter.     Column Row Layer    Maximum-Head-Change  Column Row Layer    Maximum-Flux-Residual          L2-NORM 
          0                 1           2             2    1     1       0.1987677067E-02       2    1    1         0.1031535574E+00      0.2139513677E+00
          0                 2           2             2    1     1      -0.1933468777E-03       2    1    1        -0.1031536246E-01      0.2136859243E-01
          0                 3           1             2    1     1       0.1316620818E-04       2    1    1         0.7220756197E-03      0.1493226233E-02

    ------------------------------------------------
       NWT REQUIRED            3 OUTER ITERATIONS 
       AND A TOTAL OF          5 INNER ITERATIONS.
    ------------------------------------------------

 NO OUTPUT CONTROL FOR STRESS PERIOD   34   TIME STEP   25
 
 SOLVING FOR HEAD 
                                                   Max.-Head-Change                         Max.-Flux-Residual
  Residual-Control   Outer-Iter.   Inner-Iter.     Column Row Layer    Maximum-Head-Change  Column Row Layer    Maximum-Flux-Residual          L2-NORM 
          0                 1           2             2    1     1       0.1986205427E-02       2    1    1         0.1030766815E+00      0.2123880211E+00
          0                 2           2             2    1     1      -0.1932037270E-03       2    1    1        -0.1030767483E-01      0.2121513104E-01
          0                 3           1             2    1     1       0.1315646080E-04       2    1    1         0.7215374982E-03      0.1482934703E-02

    ------------------------------------------------
       NWT REQUIRED            3 OUTER ITERATIONS 
       AND A TOTAL OF          5 INNER ITERATIONS.
    ------------------------------------------------

 NO OUTPUT CONTROL FOR STRESS PERIOD   34   TIME STEP   26
 
 SOLVING FOR HEAD 
                                                   Max.-Head-Change                         Max.-Flux-Residual
  Residual-Control   Outer-Iter.   Inner-Iter.     Column Row Layer    Maximum-Head-Change  Column Row Layer    Maximum-Flux-Residual          L2-NORM 
          0                 1           2             2    1     1       0.1984722916E-02       2    1    1         0.1029992423E+00      0.2109708217E+00
          0                 2           2             2    1     1      -0.1930595179E-03       2    1    1        -0.1029993086E-01      0.2107647503E-01
          0                 3           1             2    1     1       0.1314664028E-04       2    1    1         0.7209954008E-03      0.1473580866E-02

    ------------------------------------------------
       NWT REQUIRED            3 OUTER ITERATIONS 
       AND A TOTAL OF          5 INNER ITERATIONS.
    ------------------------------------------------

 NO OUTPUT CONTROL FOR STRESS PERIOD   34   TIME STEP   27
 
 SOLVING FOR HEAD 
                                                   Max.-Head-Change                         Max.-Flux-Residual
  Residual-Control   Outer-Iter.   Inner-Iter.     Column Row Layer    Maximum-Head-Change  Column Row Layer    Maximum-Flux-Residual          L2-NORM 
          0                 1           2             2    1     1       0.1983273073E-02       2    1    1         0.1029235131E+00      0.2096726042E+00
          0                 2           2             2    1     1      -0.1929184871E-03       2    1    1        -0.1029235791E-01      0.2094857599E-01
          0                 3           1             2    1     1       0.1313703655E-04       2    1    1         0.7204652875E-03      0.1464583894E-02

    ------------------------------------------------
       NWT REQUIRED            3 OUTER ITERATIONS 
       AND A TOTAL OF          5 INNER ITERATIONS.
    ------------------------------------------------

 NO OUTPUT CONTROL FOR STRESS PERIOD   34   TIME STEP   28
 
 SOLVING FOR HEAD 
                                                   Max.-Head-Change                         Max.-Flux-Residual
  Residual-Control   Outer-Iter.   Inner-Iter.     Column Row Layer    Maximum-Head-Change  Column Row Layer    Maximum-Flux-Residual          L2-NORM 
          0                 1           2             2    1     1       0.1981833918E-02       2    1    1         0.1028483410E+00      0.2084916355E+00
          0                 2           2             2    1     1      -0.1927784957E-03       2    1    1        -0.1028484064E-01      0.2083297173E-01
          0                 3           1             2    1     1       0.1312750382E-04       2    1    1         0.7199390920E-03      0.1456705814E-02

    ------------------------------------------------
       NWT REQUIRED            3 OUTER ITERATIONS 
       AND A TOTAL OF          5 INNER ITERATIONS.
    ------------------------------------------------

 NO OUTPUT CONTROL FOR STRESS PERIOD   34   TIME STEP   29
 
 SOLVING FOR HEAD 
                                                   Max.-Head-Change                         Max.-Flux-Residual
  Residual-Control   Outer-Iter.   Inner-Iter.     Column Row Layer    Maximum-Head-Change  Column Row Layer    Maximum-Flux-Residual          L2-NORM 
          0                 1           2             2    1     1       0.1980405195E-02       2    1    1         0.1027737229E+00      0.2074040011E+00
          0                 2           2             2    1     1      -0.1926395198E-03       2    1    1        -0.1027737880E-01      0.2072597821E-01
          0                 3           1             2    1     1       0.1311804068E-04       2    1    1         0.7194167743E-03      0.1449438620E-02

    ------------------------------------------------
       NWT REQUIRED            3 OUTER ITERATIONS 
       AND A TOTAL OF          5 INNER ITERATIONS.
    ------------------------------------------------

 NO OUTPUT CONTROL FOR STRESS PERIOD   34   TIME STEP   30



 STREAM LISTING     PERIOD     34   STEP       30

 LAYER ROW COL. STREAM  RCH.  FLOW INTO     FLOW TO   FLOW OUT OF   OVRLND.     DIRECT     STREAM       STREAM     STREAM     STREAM   STREAMBED  STREAMBED
                SEG.NO.  NO.  STRM. RCH.    AQUIFER    STRM. RCH.    RUNOFF     PRECIP       ET          HEAD       DEPTH      WIDTH   CONDCTNC.   GRADIENT

   1    1    1     1     1    3.5249E+01  2.8720E-01   3.4962E+01  0.000E+00  0.000E+00  0.000E+00  1.09434E+03  1.294E+00  1.486E+01  6.688E-02  1.431E+00
   1    2    2     1     2    3.4962E+01  4.4466E-01   3.4517E+01  0.000E+00  0.000E+00  0.000E+00  1.08935E+03  1.291E+00  1.480E+01  1.036E-01  1.430E+00
   1    3    3     1     3    3.4517E+01  3.7911E-01   3.4138E+01  0.000E+00  0.000E+00  0.000E+00  1.08371E+03  1.288E+00  1.474E+01  8.841E-02  1.429E+00
   1    3    4     1     4    3.4138E+01  3.4901E-01   3.3789E+01  0.000E+00  0.000E+00  0.000E+00  1.07869E+03  1.285E+00  1.468E+01  8.145E-02  1.428E+00
   1    4    5     2     1    3.1789E+01  3.4244E-01   3.1446E+01  0.000E+00  0.000E+00  0.000E+00  1.07332E+03  1.390E+00  1.200E+01  7.800E-02  1.463E+00
   1    5    6     2     2    3.1446E+01  2.6294E-01   3.1184E+01  0.000E+00  0.000E+00  0.000E+00  1.06789E+03  1.382E+00  1.200E+01  6.000E-02  1.461E+00
   1    6    6     2     3    3.1184E+01  2.6252E-01   3.0921E+01  0.000E+00  0.000E+00  0.000E+00  1.06317E+03  1.375E+00  1.200E+01  6.000E-02  1.458E+00
   1    7    6     2     4    3.0921E+01  2.6210E-01   3.0659E+01  0.000E+00  0.000E+00  0.000E+00  1.05844E+03  1.368E+00  1.200E+01  6.000E-02  1.456E+00
   1    8    6     2     5    3.0659E+01  2.6168E-01   3.0397E+01  0.000E+00  0.000E+00  0.000E+00  1.05372E+03  1.361E+00  1.200E+01  6.000E-02  1.454E+00
   1    3    5     3     1    2.0000E+00  2.8252E-01   1.7175E+00  0.000E+00  0.000E+00  0.000E+00  1.07555E+03  1.909E+00  9.636E+00  7.227E-02  1.955E+00
   1    3    6     3     2    1.7175E+00  2.4905E-01   1.4684E+00  0.000E+00  0.000E+00  0.000E+00  1.07264E+03  1.727E+00  8.909E+00  6.682E-02  1.864E+00
   1    3    7     3     3    1.4684E+00  1.9718E-01   1.2712E+00  0.000E+00  0.000E+00  0.000E+00  1.06987E+03  1.555E+00  8.218E+00  5.547E-02  1.777E+00
   1    4    8     3     4    1.2712E+00  2.2567E-01   1.0456E+00  0.000E+00  0.000E+00  0.000E+00  1.06682E+03  1.364E+00  7.455E+00  6.709E-02  1.682E+00
   1    5    8     3     5    1.0456E+00  1.5790E-01   8.8768E-01  0.000E+00  0.000E+00  0.000E+00  1.06362E+03  1.164E+00  6.655E+00  4.991E-02  1.582E+00
   1    6    8     3     6    8.8768E-01  5.5980E-02   8.3170E-01  0.000E+00  0.000E+00  0.000E+00  1.06158E+03  1.036E+00  6.145E+00  1.844E-02  1.518E+00
   1    5   10     4     1    1.0000E+01  9.0919E-02   9.9091E+00  0.000E+00  0.000E+00  0.000E+00  1.07836E+03  6.368E-01  1.000E+01  2.500E-02  1.212E+00
   1    5    9     4     2    9.9091E+00  1.8158E-01   9.7275E+00  0.000E+00  0.000E+00  0.000E+00  1.07154E+03  6.315E-01  1.000E+01  5.000E-02  1.211E+00
   1    6    8     4     3    9.7275E+00  1.2689E-01   9.6006E+00  0.000E+00  0.000E+00  0.000E+00  1.06381E+03  6.256E-01  1.000E+01  3.500E-02  1.209E+00
   1    6    8     5     1    1.0432E+01  2.2686E-01   1.0205E+01  0.000E+00  0.000E+00  0.000E+00  1.05868E+03  6.790E-01  1.542E+01  6.166E-02  1.226E+00
   1    7    7     5     2    1.0205E+01  2.7894E-01   9.9265E+00  0.000E+00  0.000E+00  0.000E+00  1.05417E+03  6.732E-01  1.519E+01  7.594E-02  1.224E+00
   1    8    7     5     3    9.9265E+00  1.9221E-01   9.7343E+00  0.000E+00  0.000E+00  0.000E+00  1.04992E+03  6.676E-01  1.497E+01  5.241E-02  1.223E+00
   1    8    6     5     4    9.7343E+00  1.3577E-01   9.5985E+00  0.000E+00  0.000E+00  0.000E+00  1.04691E+03  6.637E-01  1.482E+01  3.706E-02  1.221E+00
   1    9    6     6     1    3.9996E+01  2.7692E-01   3.9719E+01  0.000E+00  0.000E+00  0.000E+00  1.04434E+03  1.615E+00  1.200E+01  6.000E-02  1.538E+00
   1   10    7     6     2    3.9719E+01  2.7652E-01   3.9442E+01  0.000E+00  0.000E+00  0.000E+00  1.03979E+03  1.609E+00  1.200E+01  6.000E-02  1.536E+00
   1   11    7     6     3    3.9442E+01  2.7611E-01   3.9166E+01  0.000E+00  0.000E+00  0.000E+00  1.03524E+03  1.602E+00  1.200E+01  6.000E-02  1.534E+00
   1   12    7     6     4    3.9166E+01  2.7571E-01   3.8891E+01  0.000E+00  0.000E+00  0.000E+00  1.03069E+03  1.595E+00  1.200E+01  6.000E-02  1.532E+00
   1   13    7     6     5    3.8891E+01  6.8400E-03   3.8884E+01  0.000E+00  0.000E+00  0.000E+00  1.02750E+03  1.592E+00  1.200E+01  2.400E-02  9.500E-02
   1   14    9     7     1    1.5000E+02  1.3328E+00   1.4867E+02  0.000E+00  0.000E+00  0.000E+00  1.03987E+03  2.288E+00  5.529E+01  5.593E-01  7.943E-01
   1   13    8     7     2    1.4867E+02  1.8008E+00   1.4687E+02  0.000E+00  0.000E+00  0.000E+00  1.03478E+03  2.279E+00  5.526E+01  6.148E-01  9.764E-01
   1   13    7     7     3    1.4687E+02  1.3819E+00   1.4548E+02  0.000E+00  0.000E+00  0.000E+00  1.02969E+03  2.271E+00  5.522E+01  5.585E-01  8.248E-01
   1   13    6     8     1    1.8437E+02  8.8585E-01   1.8348E+02  0.000E+00  0.000E+00  0.000E+00  1.02492E+03  3.041E+00  4.409E+01  4.493E-01  6.572E-01
   1   13    5     8     2    1.8348E+02  1.2011E-01   1.8336E+02  0.000E+00  0.000E+00  0.000E+00  1.01866E+03  3.038E+00  4.404E+01  4.488E-01  8.920E-02
   1   13    4     8     3    1.8336E+02 -2.6389E+00   1.8600E+02  0.000E+00  0.000E+00  0.000E+00  1.01242E+03  3.045E+00  4.416E+01  4.500E+00 -1.955E-01
   1   13    3     8     4    1.8600E+02 -3.7194E+00   1.8972E+02  0.000E+00  0.000E+00  0.000E+00  1.00619E+03  3.065E+00  4.444E+01  4.529E+00 -2.738E-01
   1   13    2     8     5    1.8972E+02 -2.6036E+00   1.9232E+02  0.000E+00  0.000E+00  0.000E+00  9.99959E+02  3.084E+00  4.472E+01  4.557E+00 -1.904E-01
   1   13    1     8     6    1.9232E+02 -2.0134E+00   1.9434E+02  0.000E+00  0.000E+00  0.000E+00  9.94973E+02  3.098E+00  4.492E+01  2.747E+00 -2.444E-01
   1    8    6     9     1    0.0000E+00  0.0000E+00   0.0000E+00  0.000E+00  0.000E+00  0.000E+00  1.07875E+03  0.000E+00  4.000E+00  0.000E+00  1.000E+00
   1    8    5     9     2    0.0000E+00  0.0000E+00   0.0000E+00  0.000E+00  0.000E+00  0.000E+00  1.07825E+03  0.000E+00  4.000E+00  0.000E+00  1.000E+00





UNSATURATED ZONE PACKAGE VOLUMETRIC BUDGET FOR  TIME STEP    30 STRESS PERIOD   34
  ------------------------------------------------------------------------------



     CUMULATIVE VOLUMES      L**3       RATES FOR THIS TIME STEP      L**3/T
     ------------------                 ------------------------

           IN:                                      IN:
           ---                                      ---
        INFILTRATION =   383448954.0779          INFILTRATION =           4.4075

          OUT:                                     OUT:
          ----                                     ----
              UZF ET =   291313957.9900                UZF ET =           4.4075
        UZF RECHARGE =     1282289.7950          UZF RECHARGE =       0.0000E+00

            IN - OUT =    90852706.2929              IN - OUT =       0.0000E+00

          STORAGE:                                 STORAGE:
          --------                                 --------
      STORAGE CHANGE =    90853867.9730        STORAGE CHANGE =       1.2532E-14

 PERCENT DISCREPANCY IS DIFFERENCE BETWEEN IN-OUT MINUS CHANGE IN STORAGE
 DIVIDED BY THE AVERAGE OF IN AND OUT TIMES 100

 PERCENT DISCREPANCY =          -0.00     PERCENT DISCREPANCY =           0.00






1
  VOLUMETRIC BUDGET FOR ENTIRE MODEL AT END OF TIME STEP   30, STRESS PERIOD  34
  ------------------------------------------------------------------------------

     CUMULATIVE VOLUMES      L**3       RATES FOR THIS TIME STEP      L**3/T
     ------------------                 ------------------------

           IN:                                      IN:
           ---                                      ---
               AG WELLS  =           0.0000                 AG WELLS  =           0.0000
        DIVERSION SEGMEN =      848802.5000          DIVERSION SEGMEN =           0.0000
    TS         GW IRRIGA =           0.0000      TS         GW IRRIGA =           0.0000
    TION         SW IRRI =           0.0000      TION         SW IRRI =           0.0000
    GATION      SYSTEM L =           0.0000      GATION      SYSTEM L =           0.0000
    OSSES GW      SYSTEM =           0.1856      OSSES GW      SYSTEM =           0.0000

                TOTAL IN =      848802.6875                  TOTAL IN =           0.0000

          OUT:                                     OUT:
          ----                                     ----
               AG WELLS  =           0.0000                 AG WELLS  =           0.0000
        DIVERSION SEGMEN =           0.0000          DIVERSION SEGMEN =           0.0000
    TS         GW IRRIGA =           0.0000      TS         GW IRRIGA =           0.0000
    TION         SW IRRI =      848819.6875      TION         SW IRRI =           0.0000
    GATION      SYSTEM L =           0.0000      GATION      SYSTEM L =           0.0000
    OSSES GW      SYSTEM =           0.0000      OSSES GW      SYSTEM =           0.0000

               TOTAL OUT =      848819.6875                 TOTAL OUT =           0.0000

                IN - OUT =         -17.0000                  IN - OUT =           0.0000

     PERCENT DISCREPANCY =          -0.00         PERCENT DISCREPANCY =           0.00



1
  VOLUMETRIC BUDGET FOR ENTIRE MODEL AT END OF TIME STEP   30, STRESS PERIOD  34
  ------------------------------------------------------------------------------

     CUMULATIVE VOLUMES      L**3       RATES FOR THIS TIME STEP      L**3/T
     ------------------                 ------------------------

           IN:                                      IN:
           ---                                      ---
             STORAGE     =    43483504.0000               STORAGE     =           0.2007
       CONSTANT HEAD     =           0.0000         CONSTANT HEAD     =           0.0000
     HEAD DEP BOUNDS     =    24815042.0000       HEAD DEP BOUNDS     =           0.2856
      STREAM LEAKAGE     =  1042130496.0000        STREAM LEAKAGE     =          11.8868
        UZF RECHARGE     =     1282289.6250          UZF RECHARGE     =           0.0000
               GW ET     =           0.0000                 GW ET     =           0.0000
     SURFACE LEAKAGE     =           0.0000       SURFACE LEAKAGE     =           0.0000
           AG WELLS      =           0.0000             AG WELLS      =           0.0000

                TOTAL IN =  1111711360.0000                  TOTAL IN =          12.3731

          OUT:                                     OUT:
          ----                                     ----
             STORAGE     =   139191184.0000               STORAGE     =           1.0396
       CONSTANT HEAD     =           0.0000         CONSTANT HEAD     =           0.0000
     HEAD DEP BOUNDS     =    25418264.0000       HEAD DEP BOUNDS     =           0.2928
      STREAM LEAKAGE     =   930371648.0000        STREAM LEAKAGE     =          10.9753
        UZF RECHARGE     =           0.0000          UZF RECHARGE     =           0.0000
               GW ET     =    16750134.0000                 GW ET     =       6.5512E-02
     SURFACE LEAKAGE     =           0.0000       SURFACE LEAKAGE     =           0.0000
           AG WELLS      =           0.0000             AG WELLS      =           0.0000

               TOTAL OUT =  1111731200.0000                 TOTAL OUT =          12.3733

                IN - OUT =      -19840.0000                  IN - OUT =      -2.3556E-04

     PERCENT DISCREPANCY =          -0.00         PERCENT DISCREPANCY =          -0.00






         TIME SUMMARY AT END OF TIME STEP   30 IN STRESS PERIOD   34
                    SECONDS     MINUTES      HOURS       DAYS        YEARS
                    -----------------------------------------------------------
   TIME STEP LENGTH  87667.      1461.1      24.352      1.0147     2.77799E-03
 STRESS PERIOD TIME 2.63000E+06  43833.      730.56      30.440     8.33397E-02
         TOTAL TIME 8.68762E+07 1.44794E+06  24132.      1005.5      2.7529    
1
1
                            STRESS PERIOD NO.   35, LENGTH =   2630000.    
                            -----------------------------------------------

                              NUMBER OF TIME STEPS =    30

                               MULTIPLIER FOR DELT =     1.000

                            INITIAL TIME STEP SIZE =   87666.66    

 REUSING NON-PARAMETER GHB CELLS FROM LAST STRESS PERIOD

      2 GHB CELLS

 REUSING STREAM SEGMENT DATA FROM LAST STRESS PERIOD



            AREAL INFILTRATION RATE
 READING ON UNIT   19 WITH FORMAT: (10F4.0)            

            1           2           3           4           5           6           7           8           9          10
 ........................................................................................................................
   1   1.2000E-09   0.000       0.000       0.000       0.000       0.000       0.000       0.000       0.000       0.000    
   2   2.1000E-09  2.0000E-09  8.0000E-10  8.5000E-09   0.000       0.000       0.000       0.000       0.000       0.000    
   3   5.0000E-10  1.1000E-09  8.8000E-09  5.5000E-09   0.000       0.000       0.000       0.000       0.000       0.000    
   4   8.5000E-09  1.1000E-09  1.1000E-09  1.1000E-09  2.0000E-09   0.000       0.000       0.000       0.000       0.000    
   5   8.5000E-09  1.1000E-09  1.1000E-09  1.1000E-09  1.1000E-09   0.000       0.000       0.000       0.000       0.000    
   6   8.5000E-09  5.2000E-09  2.1000E-09  1.1000E-09  1.5000E-09   0.000       0.000       0.000       0.000       0.000    
   7   8.5000E-09  5.2000E-09  2.1000E-09  1.2000E-09  2.0000E-09   0.000       0.000       0.000       0.000       0.000    
   8   5.0000E-10  5.2000E-09  2.1000E-09  1.2000E-09  5.0000E-09   0.000       0.000       0.000       0.000       0.000    
   9   5.0000E-10  5.2000E-09  2.1000E-09  1.2000E-09  5.0000E-09   0.000       0.000       0.000       0.000       0.000    
  10   5.0000E-10  5.2000E-09  2.1000E-09  1.2000E-09  5.8000E-09   0.000       0.000       0.000       0.000       0.000    
  11   1.0000E-10  1.1000E-09  1.1000E-09  1.2000E-09  5.0000E-09   0.000       0.000       0.000       0.000       0.000    
  12   1.1000E-09  1.1000E-09  1.1000E-09  1.1000E-09  2.0000E-09   0.000       0.000       0.000       0.000       0.000    
  13   1.1000E-09  2.2000E-09  2.2000E-09  2.1000E-09  1.0000E-09   0.000       0.000       0.000       0.000       0.000    
  14   2.0000E-10  5.5000E-09  5.5000E-09  5.2000E-09  1.0000E-09   0.000       0.000       0.000       0.000       0.000    
  15    0.000      8.8000E-09  8.8000E-09   0.000       0.000       0.000       0.000       0.000       0.000       0.000    

                  ET RATE =  5.000000E-09

 USING ET EXTINCTION DEPTH FROM PREVIOUS STRESS PERIOD. CURRENT PERIOD IS:      35

 USING EXTINCTION WATER CONTENT FROM PREVIOUS STRESS PERIOD. CURRENT PERIOD IS:      35

 USING AIR ENTRY PRESSURE FROM PREVIOUS STRESS PERIOD. CURRENT PERIOD IS:      35

 USING ROOT PRESSURE HEAD FROM PREVIOUS STRESS PERIOD. CURRENT PERIOD IS:      35

 USING ROOT ACTIVITY FROM PREVIOUS STRESS PERIOD. CURRENT PERIOD IS:      35

 PROCESSING AG STRESS PERIOD DATA

 READING AG STRESS PERIOD DATA

 READING IRRIGATION SEGMENT

 READING IRRIGATION WELL

 READING SUPPLEMENTAL WELL

 END PROCESSING AG STRESS PERIOD DATA OPTIONS
 
 SOLVING FOR HEAD 
                                                   Max.-Head-Change                         Max.-Flux-Residual
  Residual-Control   Outer-Iter.   Inner-Iter.     Column Row Layer    Maximum-Head-Change  Column Row Layer    Maximum-Flux-Residual          L2-NORM 
          0                 1           2             2    1     1       0.1978964978E-02       2    1    1         0.1026985086E+00      0.2104945040E+00
          0                 2           2             2    1     1      -0.1924994253E-03       2    1    1        -0.1026985733E-01      0.2104967120E-01
          0                 3           1             2    1     1       0.1310850038E-04       2    1    1         0.7188902734E-03      0.1473512284E-02

    ------------------------------------------------
       NWT REQUIRED            3 OUTER ITERATIONS 
       AND A TOTAL OF          5 INNER ITERATIONS.
    ------------------------------------------------

 NO OUTPUT CONTROL FOR STRESS PERIOD   35   TIME STEP    1
 
 SOLVING FOR HEAD 
                                                   Max.-Head-Change                         Max.-Flux-Residual
  Residual-Control   Outer-Iter.   Inner-Iter.     Column Row Layer    Maximum-Head-Change  Column Row Layer    Maximum-Flux-Residual          L2-NORM 
          0                 1           2             2   13     1      -0.2252643706E-02       2   13    1        -0.1271277556E+00      0.2760592555E+00
          0                 2           2             2   13     1       0.2121967990E-03       2   13    1         0.1231102519E-01      0.2723190445E-01
          0                 3           1             2   13     1      -0.1381626162E-04       2   13    1        -0.8239881627E-03      0.1871677896E-02

    ------------------------------------------------
       NWT REQUIRED            3 OUTER ITERATIONS 
       AND A TOTAL OF          5 INNER ITERATIONS.
    ------------------------------------------------

 NO OUTPUT CONTROL FOR STRESS PERIOD   35   TIME STEP    2
 
 SOLVING FOR HEAD 
                                                   Max.-Head-Change                         Max.-Flux-Residual
  Residual-Control   Outer-Iter.   Inner-Iter.     Column Row Layer    Maximum-Head-Change  Column Row Layer    Maximum-Flux-Residual          L2-NORM 
          0                 1           2             2   13     1      -0.3406386757E-02       2   13    1        -0.1919793854E+00      0.3718082572E+00
          0                 2           2             2   13     1       0.3196296570E-03       2   13    1         0.1851821856E-01      0.3645537586E-01
          0                 3           1             2   13     1      -0.2067247578E-04       2   13    1        -0.1231104427E-02      0.2483525873E-02

    ------------------------------------------------
       NWT REQUIRED            3 OUTER ITERATIONS 
       AND A TOTAL OF          5 INNER ITERATIONS.
    ------------------------------------------------

 NO OUTPUT CONTROL FOR STRESS PERIOD   35   TIME STEP    3
 
 SOLVING FOR HEAD 
                                                   Max.-Head-Change                         Max.-Flux-Residual
  Residual-Control   Outer-Iter.   Inner-Iter.     Column Row Layer    Maximum-Head-Change  Column Row Layer    Maximum-Flux-Residual          L2-NORM 
          0                 1           2             2   13     1      -0.3147419847E-02       2   13    1        -0.1773521418E+00      0.3512472279E+00
          0                 2           2             2   13     1       0.2953601621E-03       2   13    1         0.1710893799E-01      0.3446560188E-01
          0                 3           1             2   13     1      -0.1910996062E-04       2   13    1        -0.1137830874E-02      0.2350986077E-02

    ------------------------------------------------
       NWT REQUIRED            3 OUTER ITERATIONS 
       AND A TOTAL OF          5 INNER ITERATIONS.
    ------------------------------------------------

 NO OUTPUT CONTROL FOR STRESS PERIOD   35   TIME STEP    4
 
 SOLVING FOR HEAD 
                                                   Max.-Head-Change                         Max.-Flux-Residual
  Residual-Control   Outer-Iter.   Inner-Iter.     Column Row Layer    Maximum-Head-Change  Column Row Layer    Maximum-Flux-Residual          L2-NORM 
          0                 1           2             2   13     1      -0.2908663887E-02       2   13    1        -0.1638683753E+00      0.3327196561E+00
          0                 2           2             2   13     1       0.2730298114E-03       2   13    1         0.1581244352E-01      0.3258548664E-01
          0                 3           1             2   13     1      -0.1768507617E-04       2   13    1        -0.1052795372E-02      0.2225419962E-02

    ------------------------------------------------
       NWT REQUIRED            3 OUTER ITERATIONS 
       AND A TOTAL OF          5 INNER ITERATIONS.
    ------------------------------------------------

 NO OUTPUT CONTROL FOR STRESS PERIOD   35   TIME STEP    5
 
 SOLVING FOR HEAD 
                                                   Max.-Head-Change                         Max.-Flux-Residual
  Residual-Control   Outer-Iter.   Inner-Iter.     Column Row Layer    Maximum-Head-Change  Column Row Layer    Maximum-Flux-Residual          L2-NORM 
          0                 1           2             2   13     1      -0.2688493597E-02       2   13    1        -0.1514359982E+00      0.3161009673E+00
          0                 2           2             2   13     1       0.2523675528E-03       2   13    1         0.1461293923E-01      0.3107157857E-01
          0                 3           1             2   13     1      -0.1633099359E-04       2   13    1        -0.9719778072E-03      0.2124382769E-02

    ------------------------------------------------
       NWT REQUIRED            3 OUTER ITERATIONS 
       AND A TOTAL OF          5 INNER ITERATIONS.
    ------------------------------------------------

 NO OUTPUT CONTROL FOR STRESS PERIOD   35   TIME STEP    6
 
 SOLVING FOR HEAD 
                                                   Max.-Head-Change                         Max.-Flux-Residual
  Residual-Control   Outer-Iter.   Inner-Iter.     Column Row Layer    Maximum-Head-Change  Column Row Layer    Maximum-Flux-Residual          L2-NORM 
          0                 1           2             2   13     1      -0.2485424326E-02       2   13    1        -0.1399708612E+00      0.3011489874E+00
          0                 2           2             2   13     1       0.2333572143E-03       2   13    1         0.1350951106E-01      0.2963091282E-01
          0                 3           1             2   13     1      -0.1510141725E-04       2   13    1        -0.8986105850E-03      0.2028199878E-02

    ------------------------------------------------
       NWT REQUIRED            3 OUTER ITERATIONS 
       AND A TOTAL OF          5 INNER ITERATIONS.
    ------------------------------------------------

 NO OUTPUT CONTROL FOR STRESS PERIOD   35   TIME STEP    7
 
 SOLVING FOR HEAD 
                                                   Max.-Head-Change                         Max.-Flux-Residual
  Residual-Control   Outer-Iter.   Inner-Iter.     Column Row Layer    Maximum-Head-Change  Column Row Layer    Maximum-Flux-Residual          L2-NORM 
          0                 1           2             2   13     1      -0.2298091335E-02       2   13    1        -0.1293956592E+00      0.2876701801E+00
          0                 2           2             2   13     1       0.2157756775E-03       2   13    1         0.1248916085E-01      0.2833039308E-01
          0                 3           1             2   13     1      -0.1397751860E-04       2   13    1        -0.8315599680E-03      0.1942129903E-02

    ------------------------------------------------
       NWT REQUIRED            3 OUTER ITERATIONS 
       AND A TOTAL OF          5 INNER ITERATIONS.
    ------------------------------------------------

 NO OUTPUT CONTROL FOR STRESS PERIOD   35   TIME STEP    8
 
 SOLVING FOR HEAD 
                                                   Max.-Head-Change                         Max.-Flux-Residual
  Residual-Control   Outer-Iter.   Inner-Iter.     Column Row Layer    Maximum-Head-Change  Column Row Layer    Maximum-Flux-Residual          L2-NORM 
          0                 1           2             2   13     1      -0.2125284153E-02       2   13    1        -0.1196418464E+00      0.2755121715E+00
          0                 2           2             2   13     1       0.1995356905E-03       2   13    1         0.1154807984E-01      0.2710861298E-01
          0                 3           1             2   13     1      -0.1293205761E-04       2   13    1        -0.7692878735E-03      0.1861251736E-02

    ------------------------------------------------
       NWT REQUIRED            3 OUTER ITERATIONS 
       AND A TOTAL OF          5 INNER ITERATIONS.
    ------------------------------------------------

 NO OUTPUT CONTROL FOR STRESS PERIOD   35   TIME STEP    9
 
 SOLVING FOR HEAD 
                                                   Max.-Head-Change                         Max.-Flux-Residual
  Residual-Control   Outer-Iter.   Inner-Iter.     Column Row Layer    Maximum-Head-Change  Column Row Layer    Maximum-Flux-Residual          L2-NORM 
          0                 1           2             2   13     1      -0.1965963481E-02       2   13    1        -0.1106479975E+00      0.2645949336E+00
          0                 2           2             2    1     1      -0.1895653286E-03       2   13    1         0.1068107128E-01      0.2610664800E-01
          0                 3           1             2    1     1       0.1290869512E-04       2   13    1        -0.7113066495E-03      0.1794912906E-02

    ------------------------------------------------
       NWT REQUIRED            3 OUTER ITERATIONS 
       AND A TOTAL OF          5 INNER ITERATIONS.
    ------------------------------------------------

 NO OUTPUT CONTROL FOR STRESS PERIOD   35   TIME STEP   10
 
 SOLVING FOR HEAD 
                                                   Max.-Head-Change                         Max.-Flux-Residual
  Residual-Control   Outer-Iter.   Inner-Iter.     Column Row Layer    Maximum-Head-Change  Column Row Layer    Maximum-Flux-Residual          L2-NORM 
          0                 1           2             2    1     1       0.1945473462E-02       2   13    1        -0.1023494586E+00      0.2547410769E+00
          0                 2           2             2    1     1      -0.1892416887E-03       2    1    1        -0.1010610592E-01      0.2515631644E-01
          0                 3           1             2    1     1       0.1288665634E-04       2    1    1         0.7074275926E-03      0.1731532844E-02

    ------------------------------------------------
       NWT REQUIRED            3 OUTER ITERATIONS 
       AND A TOTAL OF          5 INNER ITERATIONS.
    ------------------------------------------------

 NO OUTPUT CONTROL FOR STRESS PERIOD   35   TIME STEP   11
 
 SOLVING FOR HEAD 
                                                   Max.-Head-Change                         Max.-Flux-Residual
  Residual-Control   Outer-Iter.   Inner-Iter.     Column Row Layer    Maximum-Head-Change  Column Row Layer    Maximum-Flux-Residual          L2-NORM 
          0                 1           2             2    1     1       0.1942148124E-02       2    1    1         0.1008873001E+00      0.2458571636E+00
          0                 2           2             2    1     1      -0.1889182229E-03       2    1    1        -0.1008874129E-01      0.2430236648E-01
          0                 3           1             2    1     1       0.1286463011E-04       2    1    1         0.7062120953E-03      0.1674726237E-02

    ------------------------------------------------
       NWT REQUIRED            3 OUTER ITERATIONS 
       AND A TOTAL OF          5 INNER ITERATIONS.
    ------------------------------------------------

 NO OUTPUT CONTROL FOR STRESS PERIOD   35   TIME STEP   12
 
 SOLVING FOR HEAD 
                                                   Max.-Head-Change                         Max.-Flux-Residual
  Residual-Control   Outer-Iter.   Inner-Iter.     Column Row Layer    Maximum-Head-Change  Column Row Layer    Maximum-Flux-Residual          L2-NORM 
          0                 1           2             2    1     1       0.1938868114E-02       2    1    1         0.1007160229E+00      0.2378280054E+00
          0                 2           2             2    1     1      -0.1885991660E-03       2    1    1        -0.1007161349E-01      0.2352760190E-01
          0                 3           1             2    1     1       0.1284290327E-04       2    1    1         0.7050131330E-03      0.1623059143E-02

    ------------------------------------------------
       NWT REQUIRED            3 OUTER ITERATIONS 
       AND A TOTAL OF          5 INNER ITERATIONS.
    ------------------------------------------------

 NO OUTPUT CONTROL FOR STRESS PERIOD   35   TIME STEP   13
 
 SOLVING FOR HEAD 
                                                   Max.-Head-Change                         Max.-Flux-Residual
  Residual-Control   Outer-Iter.   Inner-Iter.     Column Row Layer    Maximum-Head-Change  Column Row Layer    Maximum-Flux-Residual          L2-NORM 
          0                 1           2             2    1     1       0.1935589207E-02       2    1    1         0.1005448200E+00      0.2305729251E+00
          0                 2           2             2    1     1      -0.1882802167E-03       2    1    1        -0.1005449312E-01      0.2282928816E-01
          0                 3           1             2    1     1       0.1282118423E-04       2    1    1         0.7038147168E-03      0.1576588976E-02

    ------------------------------------------------
       NWT REQUIRED            3 OUTER ITERATIONS 
       AND A TOTAL OF          5 INNER ITERATIONS.
    ------------------------------------------------

 NO OUTPUT CONTROL FOR STRESS PERIOD   35   TIME STEP   14
 
 SOLVING FOR HEAD 
                                                   Max.-Head-Change                         Max.-Flux-Residual
  Residual-Control   Outer-Iter.   Inner-Iter.     Column Row Layer    Maximum-Head-Change  Column Row Layer    Maximum-Flux-Residual          L2-NORM 
          0                 1           2             2    1     1       0.1932355064E-02       2    1    1         0.1003759503E+00      0.2240122232E+00
          0                 2           2             2    1     1      -0.1879656213E-03       2    1    1        -0.1003760605E-01      0.2219708106E-01
          0                 3           1             2    1     1       0.1279976151E-04       2    1    1         0.7026326258E-03      0.1534591219E-02

    ------------------------------------------------
       NWT REQUIRED            3 OUTER ITERATIONS 
       AND A TOTAL OF          5 INNER ITERATIONS.
    ------------------------------------------------

 NO OUTPUT CONTROL FOR STRESS PERIOD   35   TIME STEP   15
 
 SOLVING FOR HEAD 
                                                   Max.-Head-Change                         Max.-Flux-Residual
  Residual-Control   Outer-Iter.   Inner-Iter.     Column Row Layer    Maximum-Head-Change  Column Row Layer    Maximum-Flux-Residual          L2-NORM 
          0                 1           2             2    1     1       0.1929121565E-02       2    1    1         0.1002071255E+00      0.2180647529E+00
          0                 2           2             2    1     1      -0.1876510889E-03       2    1    1        -0.1002072350E-01      0.2162419339E-01
          0                 3           1             2    1     1       0.1277834329E-04       2    1    1         0.7014508503E-03      0.1496332465E-02

    ------------------------------------------------
       NWT REQUIRED            3 OUTER ITERATIONS 
       AND A TOTAL OF          5 INNER ITERATIONS.
    ------------------------------------------------

 NO OUTPUT CONTROL FOR STRESS PERIOD   35   TIME STEP   16
 
 SOLVING FOR HEAD 
                                                   Max.-Head-Change                         Max.-Flux-Residual
  Residual-Control   Outer-Iter.   Inner-Iter.     Column Row Layer    Maximum-Head-Change  Column Row Layer    Maximum-Flux-Residual          L2-NORM 
          0                 1           2             2    1     1       0.1925910357E-02       2    1    1         0.1000394721E+00      0.2126834546E+00
          0                 2           2             2    1     1      -0.1873387249E-03       2    1    1        -0.1000395809E-01      0.2110719915E-01
          0                 3           1             2    1     1       0.1275707276E-04       2    1    1         0.7002772805E-03      0.1462808714E-02

    ------------------------------------------------
       NWT REQUIRED            3 OUTER ITERATIONS 
       AND A TOTAL OF          5 INNER ITERATIONS.
    ------------------------------------------------

 NO OUTPUT CONTROL FOR STRESS PERIOD   35   TIME STEP   17
 
 SOLVING FOR HEAD 
                                                   Max.-Head-Change                         Max.-Flux-Residual
  Residual-Control   Outer-Iter.   Inner-Iter.     Column Row Layer    Maximum-Head-Change  Column Row Layer    Maximum-Flux-Residual          L2-NORM 
          0                 1           2             2    1     1       0.1922743099E-02       2    1    1         0.9987411269E-01      0.2077968511E+00
          0                 2           2             2    1     1      -0.1870306356E-03       2    1    1        -0.9987422053E-02      0.2063533430E-01
          0                 3           1             2    1     1       0.1273609285E-04       2    1    1         0.6991197454E-03      0.1430782218E-02

    ------------------------------------------------
       NWT REQUIRED            3 OUTER ITERATIONS 
       AND A TOTAL OF          5 INNER ITERATIONS.
    ------------------------------------------------

 NO OUTPUT CONTROL FOR STRESS PERIOD   35   TIME STEP   18
 
 SOLVING FOR HEAD 
                                                   Max.-Head-Change                         Max.-Flux-Residual
  Residual-Control   Outer-Iter.   Inner-Iter.     Column Row Layer    Maximum-Head-Change  Column Row Layer    Maximum-Flux-Residual          L2-NORM 
          0                 1           2             2    1     1       0.1919575675E-02       2    1    1         0.9970875559E-01      0.2033600164E+00
          0                 2           2             2    1     1      -0.1867225304E-03       2    1    1        -0.9970886266E-02      0.2020671480E-01
          0                 3           1             2    1     1       0.1271511201E-04       2    1    1         0.6979622351E-03      0.1400309265E-02

    ------------------------------------------------
       NWT REQUIRED            3 OUTER ITERATIONS 
       AND A TOTAL OF          5 INNER ITERATIONS.
    ------------------------------------------------

 NO OUTPUT CONTROL FOR STRESS PERIOD   35   TIME STEP   19
 
 SOLVING FOR HEAD 
                                                   Max.-Head-Change                         Max.-Flux-Residual
  Residual-Control   Outer-Iter.   Inner-Iter.     Column Row Layer    Maximum-Head-Change  Column Row Layer    Maximum-Flux-Residual          L2-NORM 
          0                 1           2             2    1     1       0.1916429778E-02       2    1    1         0.9954452814E-01      0.1993232283E+00
          0                 2           2             2    1     1      -0.1864165190E-03       2    1    1        -0.9954463428E-02      0.1981686328E-01
          0                 3           1             2    1     1       0.1269427411E-04       2    1    1         0.6968126446E-03      0.1376241812E-02

    ------------------------------------------------
       NWT REQUIRED            3 OUTER ITERATIONS 
       AND A TOTAL OF          5 INNER ITERATIONS.
    ------------------------------------------------

 NO OUTPUT CONTROL FOR STRESS PERIOD   35   TIME STEP   20
 
 SOLVING FOR HEAD 
                                                   Max.-Head-Change                         Max.-Flux-Residual
  Residual-Control   Outer-Iter.   Inner-Iter.     Column Row Layer    Maximum-Head-Change  Column Row Layer    Maximum-Flux-Residual          L2-NORM 
          0                 1           2             2    1     1       0.1913327154E-02       2    1    1         0.9938255525E-01      0.1956430958E+00
          0                 2           2             2    1     1      -0.1861147172E-03       2    1    1        -0.9938266074E-02      0.1946168859E-01
          0                 3           1             2    1     1       0.1267372235E-04       2    1    1         0.6956788292E-03      0.1352813214E-02

    ------------------------------------------------
       NWT REQUIRED            3 OUTER ITERATIONS 
       AND A TOTAL OF          5 INNER ITERATIONS.
    ------------------------------------------------

 NO OUTPUT CONTROL FOR STRESS PERIOD   35   TIME STEP   21
 
 SOLVING FOR HEAD 
                                                   Max.-Head-Change                         Max.-Flux-Residual
  Residual-Control   Outer-Iter.   Inner-Iter.     Column Row Layer    Maximum-Head-Change  Column Row Layer    Maximum-Flux-Residual          L2-NORM 
          0                 1           2             2    1     1       0.1910223589E-02       2    1    1         0.9922054915E-01      0.1922802515E+00
          0                 2           2             2    1     1      -0.1858128242E-03       2    1    1        -0.9922065400E-02      0.1913622051E-01
          0                 3           1             2    1     1       0.1265316467E-04       2    1    1         0.6945447838E-03      0.1331208225E-02

    ------------------------------------------------
       NWT REQUIRED            3 OUTER ITERATIONS 
       AND A TOTAL OF          5 INNER ITERATIONS.
    ------------------------------------------------

 NO OUTPUT CONTROL FOR STRESS PERIOD   35   TIME STEP   22
 
 SOLVING FOR HEAD 
                                                   Max.-Head-Change                         Max.-Flux-Residual
  Residual-Control   Outer-Iter.   Inner-Iter.     Column Row Layer    Maximum-Head-Change  Column Row Layer    Maximum-Flux-Residual          L2-NORM 
          0                 1           2             2    1     1       0.1907140791E-02       2    1    1         0.9905963272E-01      0.1892082521E+00
          0                 2           2             2    1     1      -0.1855129505E-03       2    1    1        -0.9905973674E-02      0.1883934234E-01
          0                 3           1             2    1     1       0.1263274450E-04       2    1    1         0.6934183557E-03      0.1311298229E-02

    ------------------------------------------------
       NWT REQUIRED            3 OUTER ITERATIONS 
       AND A TOTAL OF          5 INNER ITERATIONS.
    ------------------------------------------------

 NO OUTPUT CONTROL FOR STRESS PERIOD   35   TIME STEP   23
 
 SOLVING FOR HEAD 
                                                   Max.-Head-Change                         Max.-Flux-Residual
  Residual-Control   Outer-Iter.   Inner-Iter.     Column Row Layer    Maximum-Head-Change  Column Row Layer    Maximum-Flux-Residual          L2-NORM 
          0                 1           2             2    1     1       0.1904078615E-02       2    1    1         0.9889979303E-01      0.1863944111E+00
          0                 2           2             2    1     1      -0.1852150830E-03       2    1    1        -0.9889989612E-02      0.1856639368E-01
          0                 3           1             2    1     1       0.1261246089E-04       2    1    1         0.6922994695E-03      0.1292835996E-02

    ------------------------------------------------
       NWT REQUIRED            3 OUTER ITERATIONS 
       AND A TOTAL OF          5 INNER ITERATIONS.
    ------------------------------------------------

 NO OUTPUT CONTROL FOR STRESS PERIOD   35   TIME STEP   24
 
 SOLVING FOR HEAD 
                                                   Max.-Head-Change                         Max.-Flux-Residual
  Residual-Control   Outer-Iter.   Inner-Iter.     Column Row Layer    Maximum-Head-Change  Column Row Layer    Maximum-Flux-Residual          L2-NORM 
          0                 1           2             2    1     1       0.1901036819E-02       2    1    1         0.9874102258E-01      0.1838101674E+00
          0                 2           2             2    1     1      -0.1849191982E-03       2    1    1        -0.9874112493E-02      0.1831574817E-01
          0                 3           1             2    1     1       0.1259231266E-04       2    1    1         0.6911880945E-03      0.1275777158E-02

    ------------------------------------------------
       NWT REQUIRED            3 OUTER ITERATIONS 
       AND A TOTAL OF          5 INNER ITERATIONS.
    ------------------------------------------------

 NO OUTPUT CONTROL FOR STRESS PERIOD   35   TIME STEP   25
 
 SOLVING FOR HEAD 
                                                   Max.-Head-Change                         Max.-Flux-Residual
  Residual-Control   Outer-Iter.   Inner-Iter.     Column Row Layer    Maximum-Head-Change  Column Row Layer    Maximum-Flux-Residual          L2-NORM 
          0                 1           2             2    1     1       0.1898036970E-02       2    1    1         0.9858444752E-01      0.1814295010E+00
          0                 2           2             2    1     1      -0.1846273935E-03       2    1    1        -0.9858454921E-02      0.1808509952E-01
          0                 3           1             2    1     1       0.1257244157E-04       2    1    1         0.6900920479E-03      0.1260599536E-02

    ------------------------------------------------
       NWT REQUIRED            3 OUTER ITERATIONS 
       AND A TOTAL OF          5 INNER ITERATIONS.
    ------------------------------------------------

 NO OUTPUT CONTROL FOR STRESS PERIOD   35   TIME STEP   26
 
 SOLVING FOR HEAD 
                                                   Max.-Head-Change                         Max.-Flux-Residual
  Residual-Control   Outer-Iter.   Inner-Iter.     Column Row Layer    Maximum-Head-Change  Column Row Layer    Maximum-Flux-Residual          L2-NORM 
          0                 1           2             2    1     1       0.1895035066E-02       2    1    1         0.9842776992E-01      0.1792411694E+00
          0                 2           2             2    1     1      -0.1843353892E-03       2    1    1        -0.9842787104E-02      0.1787217929E-01
          0                 3           1             2    1     1       0.1255255747E-04       2    1    1         0.6889952969E-03      0.1245682050E-02

    ------------------------------------------------
       NWT REQUIRED            3 OUTER ITERATIONS 
       AND A TOTAL OF          5 INNER ITERATIONS.
    ------------------------------------------------

 NO OUTPUT CONTROL FOR STRESS PERIOD   35   TIME STEP   27
 
 SOLVING FOR HEAD 
                                                   Max.-Head-Change                         Max.-Flux-Residual
  Residual-Control   Outer-Iter.   Inner-Iter.     Column Row Layer    Maximum-Head-Change  Column Row Layer    Maximum-Flux-Residual          L2-NORM 
          0                 1           2             2    1     1       0.1892052804E-02       2    1    1         0.9827212445E-01      0.1772157982E+00
          0                 2           2             2    1     1      -0.1840452951E-03       2    1    1        -0.9827222464E-02      0.1767518044E-01
          0                 3           1             2    1     1       0.1253280282E-04       2    1    1         0.6879057809E-03      0.1232666855E-02

    ------------------------------------------------
       NWT REQUIRED            3 OUTER ITERATIONS 
       AND A TOTAL OF          5 INNER ITERATIONS.
    ------------------------------------------------

 NO OUTPUT CONTROL FOR STRESS PERIOD   35   TIME STEP   28
 
 SOLVING FOR HEAD 
                                                   Max.-Head-Change                         Max.-Flux-Residual
  Residual-Control   Outer-Iter.   Inner-Iter.     Column Row Layer    Maximum-Head-Change  Column Row Layer    Maximum-Flux-Residual          L2-NORM 
          0                 1           2             2    1     1       0.1889089988E-02       2    1    1         0.9811749749E-01      0.1753431432E+00
          0                 2           2             2    1     1      -0.1837570932E-03       2    1    1        -0.9811759714E-02      0.1749269630E-01
          0                 3           1             2    1     1       0.1251317787E-04       2    1    1         0.6868233966E-03      0.1220624652E-02

    ------------------------------------------------
       NWT REQUIRED            3 OUTER ITERATIONS 
       AND A TOTAL OF          5 INNER ITERATIONS.
    ------------------------------------------------

 NO OUTPUT CONTROL FOR STRESS PERIOD   35   TIME STEP   29
 
 SOLVING FOR HEAD 
                                                   Max.-Head-Change                         Max.-Flux-Residual
  Residual-Control   Outer-Iter.   Inner-Iter.     Column Row Layer    Maximum-Head-Change  Column Row Layer    Maximum-Flux-Residual          L2-NORM 
          0                 1           2             2    1     1       0.1886146392E-02       2    1    1         0.9796387874E-01      0.1736023208E+00
          0                 2           2             2    1     1      -0.1834707598E-03       2    1    1        -0.9796397747E-02      0.1732306811E-01
          0                 3           1             2    1     1       0.1249367931E-04       2    1    1         0.6857480386E-03      0.1209363919E-02

    ------------------------------------------------
       NWT REQUIRED            3 OUTER ITERATIONS 
       AND A TOTAL OF          5 INNER ITERATIONS.
    ------------------------------------------------

 NO OUTPUT CONTROL FOR STRESS PERIOD   35   TIME STEP   30



 STREAM LISTING     PERIOD     35   STEP       30

 LAYER ROW COL. STREAM  RCH.  FLOW INTO     FLOW TO   FLOW OUT OF   OVRLND.     DIRECT     STREAM       STREAM     STREAM     STREAM   STREAMBED  STREAMBED
                SEG.NO.  NO.  STRM. RCH.    AQUIFER    STRM. RCH.    RUNOFF     PRECIP       ET          HEAD       DEPTH      WIDTH   CONDCTNC.   GRADIENT

   1    1    1     1     1    2.6249E+01  2.5084E-01   2.5998E+01  0.000E+00  0.000E+00  0.000E+00  1.09424E+03  1.197E+00  1.328E+01  5.977E-02  1.399E+00
   1    2    2     1     2    2.5998E+01  3.8795E-01   2.5610E+01  0.000E+00  0.000E+00  0.000E+00  1.08925E+03  1.192E+00  1.322E+01  9.254E-02  1.397E+00
   1    3    3     1     3    2.5610E+01  3.3035E-01   2.5280E+01  0.000E+00  0.000E+00  0.000E+00  1.08361E+03  1.187E+00  1.315E+01  7.890E-02  1.396E+00
   1    3    4     1     4    2.5280E+01  3.0378E-01   2.4976E+01  0.000E+00  0.000E+00  0.000E+00  1.07859E+03  1.182E+00  1.309E+01  7.264E-02  1.394E+00
   1    4    5     2     1    2.2976E+01  3.2316E-01   2.2653E+01  0.000E+00  0.000E+00  0.000E+00  1.07308E+03  1.143E+00  1.200E+01  7.800E-02  1.381E+00
   1    5    6     2     2    2.2653E+01  2.4807E-01   2.2405E+01  0.000E+00  0.000E+00  0.000E+00  1.06764E+03  1.134E+00  1.200E+01  6.000E-02  1.378E+00
   1    6    6     2     3    2.2405E+01  2.4762E-01   2.2157E+01  0.000E+00  0.000E+00  0.000E+00  1.06292E+03  1.127E+00  1.200E+01  6.000E-02  1.376E+00
   1    7    6     2     4    2.2157E+01  2.4717E-01   2.1910E+01  0.000E+00  0.000E+00  0.000E+00  1.05819E+03  1.119E+00  1.200E+01  6.000E-02  1.373E+00
   1    8    6     2     5    2.1910E+01  2.4671E-01   2.1664E+01  0.000E+00  0.000E+00  0.000E+00  1.05347E+03  1.112E+00  1.200E+01  6.000E-02  1.371E+00
   1    3    5     3     1    2.0000E+00  2.8252E-01   1.7175E+00  0.000E+00  0.000E+00  0.000E+00  1.07555E+03  1.909E+00  9.636E+00  7.227E-02  1.955E+00
   1    3    6     3     2    1.7175E+00  2.4905E-01   1.4684E+00  0.000E+00  0.000E+00  0.000E+00  1.07264E+03  1.727E+00  8.909E+00  6.682E-02  1.864E+00
   1    3    7     3     3    1.4684E+00  1.9718E-01   1.2712E+00  0.000E+00  0.000E+00  0.000E+00  1.06987E+03  1.555E+00  8.218E+00  5.547E-02  1.777E+00
   1    4    8     3     4    1.2712E+00  2.2567E-01   1.0456E+00  0.000E+00  0.000E+00  0.000E+00  1.06682E+03  1.364E+00  7.455E+00  6.709E-02  1.682E+00
   1    5    8     3     5    1.0456E+00  1.5790E-01   8.8768E-01  0.000E+00  0.000E+00  0.000E+00  1.06362E+03  1.164E+00  6.655E+00  4.991E-02  1.582E+00
   1    6    8     3     6    8.8768E-01  5.5980E-02   8.3170E-01  0.000E+00  0.000E+00  0.000E+00  1.06158E+03  1.036E+00  6.145E+00  1.844E-02  1.518E+00
   1    5   10     4     1    1.0000E+01  9.0919E-02   9.9091E+00  0.000E+00  0.000E+00  0.000E+00  1.07836E+03  6.368E-01  1.000E+01  2.500E-02  1.212E+00
   1    5    9     4     2    9.9091E+00  1.8158E-01   9.7275E+00  0.000E+00  0.000E+00  0.000E+00  1.07154E+03  6.315E-01  1.000E+01  5.000E-02  1.211E+00
   1    6    8     4     3    9.7275E+00  1.2689E-01   9.6006E+00  0.000E+00  0.000E+00  0.000E+00  1.06381E+03  6.256E-01  1.000E+01  3.500E-02  1.209E+00
   1    6    8     5     1    1.0432E+01  2.2686E-01   1.0205E+01  0.000E+00  0.000E+00  0.000E+00  1.05868E+03  6.790E-01  1.542E+01  6.166E-02  1.226E+00
   1    7    7     5     2    1.0205E+01  2.7894E-01   9.9265E+00  0.000E+00  0.000E+00  0.000E+00  1.05417E+03  6.732E-01  1.519E+01  7.594E-02  1.224E+00
   1    8    7     5     3    9.9265E+00  1.9221E-01   9.7343E+00  0.000E+00  0.000E+00  0.000E+00  1.04992E+03  6.676E-01  1.497E+01  5.241E-02  1.223E+00
   1    8    6     5     4    9.7343E+00  1.3577E-01   9.5985E+00  0.000E+00  0.000E+00  0.000E+00  1.04691E+03  6.637E-01  1.482E+01  3.706E-02  1.221E+00
   1    9    6     6     1    3.1262E+01  2.6357E-01   3.0999E+01  0.000E+00  0.000E+00  0.000E+00  1.04412E+03  1.393E+00  1.200E+01  6.000E-02  1.464E+00
   1   10    7     6     2    3.0999E+01  2.6314E-01   3.0735E+01  0.000E+00  0.000E+00  0.000E+00  1.03957E+03  1.386E+00  1.200E+01  6.000E-02  1.462E+00
   1   11    7     6     3    3.0735E+01  2.6272E-01   3.0473E+01  0.000E+00  0.000E+00  0.000E+00  1.03501E+03  1.379E+00  1.200E+01  6.000E-02  1.460E+00
   1   12    7     6     4    3.0473E+01  2.6229E-01   3.0210E+01  0.000E+00  0.000E+00  0.000E+00  1.03046E+03  1.371E+00  1.200E+01  6.000E-02  1.457E+00
   1   13    7     6     5    3.0210E+01  1.6355E-03   3.0209E+01  0.000E+00  0.000E+00  0.000E+00  1.02728E+03  1.368E+00  1.200E+01  2.400E-02  2.272E-02
   1   14    9     7     1    1.5000E+02  1.3326E+00   1.4867E+02  0.000E+00  0.000E+00  0.000E+00  1.03987E+03  2.288E+00  5.529E+01  5.593E-01  7.942E-01
   1   13    8     7     2    1.4867E+02  1.8008E+00   1.4687E+02  0.000E+00  0.000E+00  0.000E+00  1.03478E+03  2.279E+00  5.526E+01  6.148E-01  9.764E-01
   1   13    7     7     3    1.4687E+02  1.3858E+00   1.4548E+02  0.000E+00  0.000E+00  0.000E+00  1.02969E+03  2.271E+00  5.522E+01  5.585E-01  8.271E-01
   1   13    6     8     1    1.7569E+02  8.5536E-01   1.7483E+02  0.000E+00  0.000E+00  0.000E+00  1.02486E+03  2.986E+00  4.330E+01  4.412E-01  6.462E-01
   1   13    5     8     2    1.7483E+02  1.0237E-01   1.7473E+02  0.000E+00  0.000E+00  0.000E+00  1.01861E+03  2.983E+00  4.325E+01  4.408E-01  7.742E-02
   1   13    4     8     3    1.7473E+02 -2.7051E+00   1.7744E+02  0.000E+00  0.000E+00  0.000E+00  1.01237E+03  2.991E+00  4.338E+01  4.420E+00 -2.040E-01
   1   13    3     8     4    1.7744E+02 -3.7777E+00   1.8121E+02  0.000E+00  0.000E+00  0.000E+00  1.00614E+03  3.012E+00  4.367E+01  4.450E+00 -2.829E-01
   1   13    2     8     5    1.8121E+02 -2.6174E+00   1.8383E+02  0.000E+00  0.000E+00  0.000E+00  9.99907E+02  3.032E+00  4.396E+01  4.480E+00 -1.947E-01
   1   13    1     8     6    1.8383E+02 -2.0152E+00   1.8585E+02  0.000E+00  0.000E+00  0.000E+00  9.94921E+02  3.046E+00  4.417E+01  2.701E+00 -2.487E-01
   1    8    6     9     1    0.0000E+00  0.0000E+00   0.0000E+00  0.000E+00  0.000E+00  0.000E+00  1.07875E+03  0.000E+00  4.000E+00  0.000E+00  1.000E+00
   1    8    5     9     2    0.0000E+00  0.0000E+00   0.0000E+00  0.000E+00  0.000E+00  0.000E+00  1.07825E+03  0.000E+00  4.000E+00  0.000E+00  1.000E+00





UNSATURATED ZONE PACKAGE VOLUMETRIC BUDGET FOR  TIME STEP    30 STRESS PERIOD   35
  ------------------------------------------------------------------------------



     CUMULATIVE VOLUMES      L**3       RATES FOR THIS TIME STEP      L**3/T
     ------------------                 ------------------------

           IN:                                      IN:
           ---                                      ---
        INFILTRATION =   395040678.6360          INFILTRATION =           4.4075

          OUT:                                     OUT:
          ----                                     ----
              UZF ET =   301255357.6340                UZF ET =           3.7800
        UZF RECHARGE =     1282289.7950          UZF RECHARGE =       0.0000E+00

            IN - OUT =    92503031.2069              IN - OUT =           0.6275

          STORAGE:                                 STORAGE:
          --------                                 --------
      STORAGE CHANGE =    92504192.8976        STORAGE CHANGE =           0.6275

 PERCENT DISCREPANCY IS DIFFERENCE BETWEEN IN-OUT MINUS CHANGE IN STORAGE
 DIVIDED BY THE AVERAGE OF IN AND OUT TIMES 100

 PERCENT DISCREPANCY =          -0.00     PERCENT DISCREPANCY =           0.00






1
  VOLUMETRIC BUDGET FOR ENTIRE MODEL AT END OF TIME STEP   30, STRESS PERIOD  35
  ------------------------------------------------------------------------------

     CUMULATIVE VOLUMES      L**3       RATES FOR THIS TIME STEP      L**3/T
     ------------------                 ------------------------

           IN:                                      IN:
           ---                                      ---
               AG WELLS  =           0.0000                 AG WELLS  =           0.0000
        DIVERSION SEGMEN =      848802.5000          DIVERSION SEGMEN =           0.0000
    TS         GW IRRIGA =           0.0000      TS         GW IRRIGA =           0.0000
    TION         SW IRRI =           0.0000      TION         SW IRRI =           0.0000
    GATION      SYSTEM L =           0.0000      GATION      SYSTEM L =           0.0000
    OSSES GW      SYSTEM =           0.1856      OSSES GW      SYSTEM =           0.0000

                TOTAL IN =      848802.6875                  TOTAL IN =           0.0000

          OUT:                                     OUT:
          ----                                     ----
               AG WELLS  =           0.0000                 AG WELLS  =           0.0000
        DIVERSION SEGMEN =           0.0000          DIVERSION SEGMEN =           0.0000
    TS         GW IRRIGA =           0.0000      TS         GW IRRIGA =           0.0000
    TION         SW IRRI =      848819.6875      TION         SW IRRI =           0.0000
    GATION      SYSTEM L =           0.0000      GATION      SYSTEM L =           0.0000
    OSSES GW      SYSTEM =           0.0000      OSSES GW      SYSTEM =           0.0000

               TOTAL OUT =      848819.6875                 TOTAL OUT =           0.0000

                IN - OUT =         -17.0000                  IN - OUT =           0.0000

     PERCENT DISCREPANCY =          -0.00         PERCENT DISCREPANCY =           0.00



1
  VOLUMETRIC BUDGET FOR ENTIRE MODEL AT END OF TIME STEP   30, STRESS PERIOD  35
  ------------------------------------------------------------------------------

     CUMULATIVE VOLUMES      L**3       RATES FOR THIS TIME STEP      L**3/T
     ------------------                 ------------------------

           IN:                                      IN:
           ---                                      ---
             STORAGE     =    44938844.0000               STORAGE     =           0.3492
       CONSTANT HEAD     =           0.0000         CONSTANT HEAD     =           0.0000
     HEAD DEP BOUNDS     =    25566024.0000       HEAD DEP BOUNDS     =           0.2855
      STREAM LEAKAGE     =  1072444416.0000        STREAM LEAKAGE     =          11.5174
        UZF RECHARGE     =     1282289.6250          UZF RECHARGE     =           0.0000
               GW ET     =           0.0000                 GW ET     =           0.0000
     SURFACE LEAKAGE     =           0.0000       SURFACE LEAKAGE     =           0.0000
           AG WELLS      =           0.0000             AG WELLS      =           0.0000

                TOTAL IN =  1144231552.0000                  TOTAL IN =          12.1521

          OUT:                                     OUT:
          ----                                     ----
             STORAGE     =   141324320.0000               STORAGE     =           0.7454
       CONSTANT HEAD     =           0.0000         CONSTANT HEAD     =           0.0000
     HEAD DEP BOUNDS     =    26186080.0000       HEAD DEP BOUNDS     =           0.2914
      STREAM LEAKAGE     =   959990272.0000        STREAM LEAKAGE     =          11.1154
        UZF RECHARGE     =           0.0000          UZF RECHARGE     =           0.0000
               GW ET     =    16750928.0000                 GW ET     =           0.0000
     SURFACE LEAKAGE     =           0.0000       SURFACE LEAKAGE     =           0.0000
           AG WELLS      =           0.0000             AG WELLS      =           0.0000

               TOTAL OUT =  1144251648.0000                 TOTAL OUT =          12.1522

                IN - OUT =      -20096.0000                  IN - OUT =      -1.0872E-04

     PERCENT DISCREPANCY =          -0.00         PERCENT DISCREPANCY =          -0.00






         TIME SUMMARY AT END OF TIME STEP   30 IN STRESS PERIOD   35
                    SECONDS     MINUTES      HOURS       DAYS        YEARS
                    -----------------------------------------------------------
   TIME STEP LENGTH  87667.      1461.1      24.352      1.0147     2.77799E-03
 STRESS PERIOD TIME 2.63000E+06  43833.      730.56      30.440     8.33397E-02
         TOTAL TIME 8.95061E+07 1.49177E+06  24863.      1036.0      2.8363    
1
1
                            STRESS PERIOD NO.   36, LENGTH =   2630000.    
                            -----------------------------------------------

                              NUMBER OF TIME STEPS =    30

                               MULTIPLIER FOR DELT =     1.000

                            INITIAL TIME STEP SIZE =   87666.66    

 REUSING NON-PARAMETER GHB CELLS FROM LAST STRESS PERIOD

      2 GHB CELLS

 REUSING STREAM SEGMENT DATA FROM LAST STRESS PERIOD



            AREAL INFILTRATION RATE
 READING ON UNIT   19 WITH FORMAT: (10F4.0)            

            1           2           3           4           5           6           7           8           9          10
 ........................................................................................................................
   1   1.2000E-09   0.000       0.000       0.000       0.000       0.000       0.000       0.000       0.000       0.000    
   2   2.1000E-09  2.0000E-09  8.0000E-10  8.5000E-09   0.000       0.000       0.000       0.000       0.000       0.000    
   3   5.0000E-10  1.1000E-09  8.8000E-09  5.5000E-09   0.000       0.000       0.000       0.000       0.000       0.000    
   4   8.5000E-09  1.1000E-09  1.1000E-09  1.1000E-09  2.0000E-09   0.000       0.000       0.000       0.000       0.000    
   5   8.5000E-09  1.1000E-09  1.1000E-09  1.1000E-09  1.1000E-09   0.000       0.000       0.000       0.000       0.000    
   6   8.5000E-09  5.2000E-09  2.1000E-09  1.1000E-09  1.5000E-09   0.000       0.000       0.000       0.000       0.000    
   7   8.5000E-09  5.2000E-09  2.1000E-09  1.2000E-09  2.0000E-09   0.000       0.000       0.000       0.000       0.000    
   8   5.0000E-10  5.2000E-09  2.1000E-09  1.2000E-09  5.0000E-09   0.000       0.000       0.000       0.000       0.000    
   9   5.0000E-10  5.2000E-09  2.1000E-09  1.2000E-09  5.0000E-09   0.000       0.000       0.000       0.000       0.000    
  10   5.0000E-10  5.2000E-09  2.1000E-09  1.2000E-09  5.8000E-09   0.000       0.000       0.000       0.000       0.000    
  11   1.0000E-10  1.1000E-09  1.1000E-09  1.2000E-09  5.0000E-09   0.000       0.000       0.000       0.000       0.000    
  12   1.1000E-09  1.1000E-09  1.1000E-09  1.1000E-09  2.0000E-09   0.000       0.000       0.000       0.000       0.000    
  13   1.1000E-09  2.2000E-09  2.2000E-09  2.1000E-09  1.0000E-09   0.000       0.000       0.000       0.000       0.000    
  14   2.0000E-10  5.5000E-09  5.5000E-09  5.2000E-09  1.0000E-09   0.000       0.000       0.000       0.000       0.000    
  15    0.000      8.8000E-09  8.8000E-09   0.000       0.000       0.000       0.000       0.000       0.000       0.000    

                  ET RATE =  5.000000E-10

 USING ET EXTINCTION DEPTH FROM PREVIOUS STRESS PERIOD. CURRENT PERIOD IS:      36

 USING EXTINCTION WATER CONTENT FROM PREVIOUS STRESS PERIOD. CURRENT PERIOD IS:      36

 USING AIR ENTRY PRESSURE FROM PREVIOUS STRESS PERIOD. CURRENT PERIOD IS:      36

 USING ROOT PRESSURE HEAD FROM PREVIOUS STRESS PERIOD. CURRENT PERIOD IS:      36

 USING ROOT ACTIVITY FROM PREVIOUS STRESS PERIOD. CURRENT PERIOD IS:      36

 PROCESSING AG STRESS PERIOD DATA

 READING AG STRESS PERIOD DATA

 READING IRRIGATION SEGMENT

 READING IRRIGATION WELL

 READING SUPPLEMENTAL WELL

 END PROCESSING AG STRESS PERIOD DATA OPTIONS
 
 SOLVING FOR HEAD 
                                                   Max.-Head-Change                         Max.-Flux-Residual
  Residual-Control   Outer-Iter.   Inner-Iter.     Column Row Layer    Maximum-Head-Change  Column Row Layer    Maximum-Flux-Residual          L2-NORM 
          0                 1           2             2    1     1       0.1883221793E-02       2    1    1         0.9781125652E-01      0.1719913307E+00
          0                 2           2             2    1     1      -0.1831862754E-03       2    1    1        -0.9781135462E-02      0.1716588578E-01
          0                 3           1             2    1     1       0.1247430713E-04       2    1    1         0.6846796860E-03      0.1198462197E-02

    ------------------------------------------------
       NWT REQUIRED            3 OUTER ITERATIONS 
       AND A TOTAL OF          5 INNER ITERATIONS.
    ------------------------------------------------

 NO OUTPUT CONTROL FOR STRESS PERIOD   36   TIME STEP    1
 
 SOLVING FOR HEAD 
                                                   Max.-Head-Change                         Max.-Flux-Residual
  Residual-Control   Outer-Iter.   Inner-Iter.     Column Row Layer    Maximum-Head-Change  Column Row Layer    Maximum-Flux-Residual          L2-NORM 
          0                 1           2             2   13     1      -0.2630889596E-02       2   13    1        -0.1478619215E+00      0.3278198375E+00
          0                 2           2             7   13     1      -0.3719251526E-03       7   13    1        -0.2022759811E-01      0.3855405877E-01
          0                 3           1             7   13     1       0.3616566672E-04       7   13    1         0.2019942837E-02      0.3023365090E-02

    ------------------------------------------------
       NWT REQUIRED            3 OUTER ITERATIONS 
       AND A TOTAL OF          5 INNER ITERATIONS.
    ------------------------------------------------

 NO OUTPUT CONTROL FOR STRESS PERIOD   36   TIME STEP    2
 
 SOLVING FOR HEAD 
                                                   Max.-Head-Change                         Max.-Flux-Residual
  Residual-Control   Outer-Iter.   Inner-Iter.     Column Row Layer    Maximum-Head-Change  Column Row Layer    Maximum-Flux-Residual          L2-NORM 
          0                 1           2             2   13     1      -0.2599969641E-02       2   13    1        -0.1461022426E+00      0.3285525663E+00
          0                 2           2             2   13     1       0.2423827041E-03       4   13    1         0.1404461624E-01      0.3225031003E-01
          0                 3           1             4   13     1      -0.1607424889E-04       4   13    1        -0.9699269558E-03      0.2198572946E-02

    ------------------------------------------------
       NWT REQUIRED            3 OUTER ITERATIONS 
       AND A TOTAL OF          5 INNER ITERATIONS.
    ------------------------------------------------

 NO OUTPUT CONTROL FOR STRESS PERIOD   36   TIME STEP    3
 
 SOLVING FOR HEAD 
                                                   Max.-Head-Change                         Max.-Flux-Residual
  Residual-Control   Outer-Iter.   Inner-Iter.     Column Row Layer    Maximum-Head-Change  Column Row Layer    Maximum-Flux-Residual          L2-NORM 
          0                 1           2             2   13     1      -0.2410630270E-02       2   13    1        -0.1354409452E+00      0.3120809060E+00
          0                 2           2             2   13     1       0.2247903861E-03       2   13    1         0.1298213270E-01      0.3066050926E-01
          0                 3           1             4   13     1      -0.1461930752E-04       4   13    1        -0.8813204386E-03      0.2094916033E-02

    ------------------------------------------------
       NWT REQUIRED            3 OUTER ITERATIONS 
       AND A TOTAL OF          5 INNER ITERATIONS.
    ------------------------------------------------

 NO OUTPUT CONTROL FOR STRESS PERIOD   36   TIME STEP    4
 
 SOLVING FOR HEAD 
                                                   Max.-Head-Change                         Max.-Flux-Residual
  Residual-Control   Outer-Iter.   Inner-Iter.     Column Row Layer    Maximum-Head-Change  Column Row Layer    Maximum-Flux-Residual          L2-NORM 
          0                 1           2             2   13     1      -0.2235438691E-02       2   13    1        -0.1255773187E+00      0.2971988739E+00
          0                 2           2             2   13     1       0.2084755265E-03       2   13    1         0.1203787593E-01      0.2922308466E-01
          0                 3           1             2   13     1      -0.1336637638E-04       4   13    1        -0.8016927241E-03      0.1999215724E-02

    ------------------------------------------------
       NWT REQUIRED            3 OUTER ITERATIONS 
       AND A TOTAL OF          5 INNER ITERATIONS.
    ------------------------------------------------

 NO OUTPUT CONTROL FOR STRESS PERIOD   36   TIME STEP    5
 
 SOLVING FOR HEAD 
                                                   Max.-Head-Change                         Max.-Flux-Residual
  Residual-Control   Outer-Iter.   Inner-Iter.     Column Row Layer    Maximum-Head-Change  Column Row Layer    Maximum-Flux-Residual          L2-NORM 
          0                 1           2             2   13     1      -0.2073349057E-02       2   13    1        -0.1164523038E+00      0.2837419901E+00
          0                 2           2             2   13     1       0.1933866304E-03       2   13    1         0.1116467420E-01      0.2792477746E-01
          0                 3           1             2   13     1      -0.1239853145E-04       2   13    1        -0.7356468714E-03      0.1912634509E-02

    ------------------------------------------------
       NWT REQUIRED            3 OUTER ITERATIONS 
       AND A TOTAL OF          5 INNER ITERATIONS.
    ------------------------------------------------

 NO OUTPUT CONTROL FOR STRESS PERIOD   36   TIME STEP    6
 
 SOLVING FOR HEAD 
                                                   Max.-Head-Change                         Max.-Flux-Residual
  Residual-Control   Outer-Iter.   Inner-Iter.     Column Row Layer    Maximum-Head-Change  Column Row Layer    Maximum-Flux-Residual          L2-NORM 
          0                 1           2             2   13     1      -0.1923279351E-02       2   13    1        -0.1080047546E+00      0.2715809304E+00
          0                 2           2             2    1     1      -0.1804050842E-03       2   13    1         0.1035563943E-01      0.2675313169E-01
          0                 3           1             2    1     1       0.1228491526E-04       2   13    1        -0.6828753221E-03      0.1836035342E-02

    ------------------------------------------------
       NWT REQUIRED            3 OUTER ITERATIONS 
       AND A TOTAL OF          5 INNER ITERATIONS.
    ------------------------------------------------

 NO OUTPUT CONTROL FOR STRESS PERIOD   36   TIME STEP    7
 
 SOLVING FOR HEAD 
                                                   Max.-Head-Change                         Max.-Flux-Residual
  Residual-Control   Outer-Iter.   Inner-Iter.     Column Row Layer    Maximum-Head-Change  Column Row Layer    Maximum-Flux-Residual          L2-NORM 
          0                 1           2             2    1     1       0.1849947503E-02       2   13    1        -0.1001879690E+00      0.2605713074E+00
          0                 2           2             2    1     1      -0.1799496381E-03       2    1    1        -0.9617723889E-02      0.2569115821E-01
          0                 3           1             2    1     1       0.1225390112E-04       2    1    1         0.6732408386E-03      0.1763702222E-02

    ------------------------------------------------
       NWT REQUIRED            3 OUTER ITERATIONS 
       AND A TOTAL OF          5 INNER ITERATIONS.
    ------------------------------------------------

 NO OUTPUT CONTROL FOR STRESS PERIOD   36   TIME STEP    8
 
 SOLVING FOR HEAD 
                                                   Max.-Head-Change                         Max.-Flux-Residual
  Residual-Control   Outer-Iter.   Inner-Iter.     Column Row Layer    Maximum-Head-Change  Column Row Layer    Maximum-Flux-Residual          L2-NORM 
          0                 1           2             2    1     1       0.1845274852E-02       2    1    1         0.9593320854E-01      0.2506034655E+00
          0                 2           2             2    1     1      -0.1794951155E-03       2    1    1        -0.9593333443E-02      0.2473023161E-01
          0                 3           1             2    1     1       0.1222294994E-04       2    1    1         0.6715335149E-03      0.1700882366E-02

    ------------------------------------------------
       NWT REQUIRED            3 OUTER ITERATIONS 
       AND A TOTAL OF          5 INNER ITERATIONS.
    ------------------------------------------------

 NO OUTPUT CONTROL FOR STRESS PERIOD   36   TIME STEP    9
 
 SOLVING FOR HEAD 
                                                   Max.-Head-Change                         Max.-Flux-Residual
  Residual-Control   Outer-Iter.   Inner-Iter.     Column Row Layer    Maximum-Head-Change  Column Row Layer    Maximum-Flux-Residual          L2-NORM 
          0                 1           2             2    1     1       0.1840655363E-02       2    1    1         0.9569207577E-01      0.2415748085E+00
          0                 2           2             2    1     1      -0.1790457628E-03       2    1    1        -0.9569220034E-02      0.2386037622E-01
          0                 3           1             2    1     1       0.1219235069E-04       2    1    1         0.6698455636E-03      0.1642015530E-02

    ------------------------------------------------
       NWT REQUIRED            3 OUTER ITERATIONS 
       AND A TOTAL OF          5 INNER ITERATIONS.
    ------------------------------------------------

 NO OUTPUT CONTROL FOR STRESS PERIOD   36   TIME STEP   10
 
 SOLVING FOR HEAD 
                                                   Max.-Head-Change                         Max.-Flux-Residual
  Residual-Control   Outer-Iter.   Inner-Iter.     Column Row Layer    Maximum-Head-Change  Column Row Layer    Maximum-Flux-Residual          L2-NORM 
          0                 1           2             2    1     1       0.1836066578E-02       2    1    1         0.9545255985E-01      0.2333882455E+00
          0                 2           2             2    1     1      -0.1785993982E-03       2    1    1        -0.9545268358E-02      0.2307150291E-01
          0                 3           1             2    1     1       0.1216195521E-04       2    1    1         0.6681689657E-03      0.1589809334E-02

    ------------------------------------------------
       NWT REQUIRED            3 OUTER ITERATIONS 
       AND A TOTAL OF          5 INNER ITERATIONS.
    ------------------------------------------------

 NO OUTPUT CONTROL FOR STRESS PERIOD   36   TIME STEP   11
 
 SOLVING FOR HEAD 
                                                   Max.-Head-Change                         Max.-Flux-Residual
  Residual-Control   Outer-Iter.   Inner-Iter.     Column Row Layer    Maximum-Head-Change  Column Row Layer    Maximum-Flux-Residual          L2-NORM 
          0                 1           2             2    1     1       0.1831486329E-02       2    1    1         0.9521349624E-01      0.2259428147E+00
          0                 2           2             2    1     1      -0.1781538632E-03       2    1    1        -0.9521361906E-02      0.2235380481E-01
          0                 3           1             2    1     1       0.1213161606E-04       2    1    1         0.6664955046E-03      0.1542399336E-02

    ------------------------------------------------
       NWT REQUIRED            3 OUTER ITERATIONS 
       AND A TOTAL OF          5 INNER ITERATIONS.
    ------------------------------------------------

 NO OUTPUT CONTROL FOR STRESS PERIOD   36   TIME STEP   12
 
 SOLVING FOR HEAD 
                                                   Max.-Head-Change                         Max.-Flux-Residual
  Residual-Control   Outer-Iter.   Inner-Iter.     Column Row Layer    Maximum-Head-Change  Column Row Layer    Maximum-Flux-Residual          L2-NORM 
          0                 1           2             2    1     1       0.1826958213E-02       2    1    1         0.9497715457E-01      0.2191744893E+00
          0                 2           2             2    1     1      -0.1777133991E-03       2    1    1        -0.9497727631E-02      0.2170162402E-01
          0                 3           1             2    1     1       0.1210162151E-04       2    1    1         0.6648410861E-03      0.1499240998E-02

    ------------------------------------------------
       NWT REQUIRED            3 OUTER ITERATIONS 
       AND A TOTAL OF          5 INNER ITERATIONS.
    ------------------------------------------------

 NO OUTPUT CONTROL FOR STRESS PERIOD   36   TIME STEP   13
 
 SOLVING FOR HEAD 
                                                   Max.-Head-Change                         Max.-Flux-Residual
  Residual-Control   Outer-Iter.   Inner-Iter.     Column Row Layer    Maximum-Head-Change  Column Row Layer    Maximum-Flux-Residual          L2-NORM 
          0                 1           2             2    1     1       0.1822459886E-02       2    1    1         0.9474237629E-01      0.2130103154E+00
          0                 2           2             2    1     1      -0.1772758334E-03       2    1    1        -0.9474249695E-02      0.2110759011E-01
          0                 3           1             2    1     1       0.1207182553E-04       2    1    1         0.6631976510E-03      0.1459279453E-02

    ------------------------------------------------
       NWT REQUIRED            3 OUTER ITERATIONS 
       AND A TOTAL OF          5 INNER ITERATIONS.
    ------------------------------------------------

 NO OUTPUT CONTROL FOR STRESS PERIOD   36   TIME STEP   14
 
 SOLVING FOR HEAD 
                                                   Max.-Head-Change                         Max.-Flux-Residual
  Residual-Control   Outer-Iter.   Inner-Iter.     Column Row Layer    Maximum-Head-Change  Column Row Layer    Maximum-Flux-Residual          L2-NORM 
          0                 1           2             2    1     1       0.1817969120E-02       2    1    1         0.9450800269E-01      0.2073841280E+00
          0                 2           2             2    1     1      -0.1768390026E-03       2    1    1        -0.9450812245E-02      0.2056457372E-01
          0                 3           1             2    1     1       0.1204207854E-04       2    1    1         0.6615570152E-03      0.1423328603E-02

    ------------------------------------------------
       NWT REQUIRED            3 OUTER ITERATIONS 
       AND A TOTAL OF          5 INNER ITERATIONS.
    ------------------------------------------------

 NO OUTPUT CONTROL FOR STRESS PERIOD   36   TIME STEP   15
 
 SOLVING FOR HEAD 
                                                   Max.-Head-Change                         Max.-Flux-Residual
  Residual-Control   Outer-Iter.   Inner-Iter.     Column Row Layer    Maximum-Head-Change  Column Row Layer    Maximum-Flux-Residual          L2-NORM 
          0                 1           2             2    1     1       0.1813529471E-02       2    1    1         0.9427630075E-01      0.2022409730E+00
          0                 2           2             2    1     1      -0.1764071448E-03       2    1    1        -0.9427641951E-02      0.2006759213E-01
          0                 3           1             2    1     1       0.1201267142E-04       2    1    1         0.6599351299E-03      0.1390321350E-02

    ------------------------------------------------
       NWT REQUIRED            3 OUTER ITERATIONS 
       AND A TOTAL OF          5 INNER ITERATIONS.
    ------------------------------------------------

 NO OUTPUT CONTROL FOR STRESS PERIOD   36   TIME STEP   16
 
 SOLVING FOR HEAD 
                                                   Max.-Head-Change                         Max.-Flux-Residual
  Residual-Control   Outer-Iter.   Inner-Iter.     Column Row Layer    Maximum-Head-Change  Column Row Layer    Maximum-Flux-Residual          L2-NORM 
          0                 1           2             2    1     1       0.1809096807E-02       2    1    1         0.9404496946E-01      0.1975282060E+00
          0                 2           2             2    1     1      -0.1759759659E-03       2    1    1        -0.9404508735E-02      0.1961276470E-01
          0                 3           1             2    1     1       0.1198330949E-04       2    1    1         0.6583157890E-03      0.1359690726E-02

    ------------------------------------------------
       NWT REQUIRED            3 OUTER ITERATIONS 
       AND A TOTAL OF          5 INNER ITERATIONS.
    ------------------------------------------------

 NO OUTPUT CONTROL FOR STRESS PERIOD   36   TIME STEP   17
 
 SOLVING FOR HEAD 
                                                   Max.-Head-Change                         Max.-Flux-Residual
  Residual-Control   Outer-Iter.   Inner-Iter.     Column Row Layer    Maximum-Head-Change  Column Row Layer    Maximum-Flux-Residual          L2-NORM 
          0                 1           2             2    1     1       0.1804714657E-02       2    1    1         0.9381628020E-01      0.1931996834E+00
          0                 2           2             2    1     1      -0.1755497005E-03       2    1    1        -0.9381639702E-02      0.1919369059E-01
          0                 3           1             2    1     1       0.1195428246E-04       2    1    1         0.6567149562E-03      0.1331806150E-02

    ------------------------------------------------
       NWT REQUIRED            3 OUTER ITERATIONS 
       AND A TOTAL OF          5 INNER ITERATIONS.
    ------------------------------------------------

 NO OUTPUT CONTROL FOR STRESS PERIOD   36   TIME STEP   18
 
 SOLVING FOR HEAD 
                                                   Max.-Head-Change                         Max.-Flux-Residual
  Residual-Control   Outer-Iter.   Inner-Iter.     Column Row Layer    Maximum-Head-Change  Column Row Layer    Maximum-Flux-Residual          L2-NORM 
          0                 1           2             2    1     1       0.1800338861E-02       2    1    1         0.9358793001E-01      0.1892108539E+00
          0                 2           2             2    1     1      -0.1751240535E-03       2    1    1        -0.9358804583E-02      0.1880660139E-01
          0                 3           1             2    1     1       0.1192529756E-04       2    1    1         0.6551164980E-03      0.1305110621E-02

    ------------------------------------------------
       NWT REQUIRED            3 OUTER ITERATIONS 
       AND A TOTAL OF          5 INNER ITERATIONS.
    ------------------------------------------------

 NO OUTPUT CONTROL FOR STRESS PERIOD   36   TIME STEP   19
 
 SOLVING FOR HEAD 
                                                   Max.-Head-Change                         Max.-Flux-Residual
  Residual-Control   Outer-Iter.   Inner-Iter.     Column Row Layer    Maximum-Head-Change  Column Row Layer    Maximum-Flux-Residual          L2-NORM 
          0                 1           2             2    1     1       0.1796012964E-02       2    1    1         0.9336218946E-01      0.1855392805E+00
          0                 2           2             2    1     1      -0.1747032601E-03       2    1    1        -0.9336230439E-02      0.1845197058E-01
          0                 3           1             2    1     1       0.1189664282E-04       2    1    1         0.6535362963E-03      0.1282350745E-02

    ------------------------------------------------
       NWT REQUIRED            3 OUTER ITERATIONS 
       AND A TOTAL OF          5 INNER ITERATIONS.
    ------------------------------------------------

 NO OUTPUT CONTROL FOR STRESS PERIOD   36   TIME STEP   20
 
 SOLVING FOR HEAD 
                                                   Max.-Head-Change                         Max.-Flux-Residual
  Residual-Control   Outer-Iter.   Inner-Iter.     Column Row Layer    Maximum-Head-Change  Column Row Layer    Maximum-Flux-Residual          L2-NORM 
          0                 1           2             2    1     1       0.1791692809E-02       2    1    1         0.9313675579E-01      0.1821414706E+00
          0                 2           2             2    1     1      -0.1742830260E-03       2    1    1        -0.9313687003E-02      0.1812269852E-01
          0                 3           1             2    1     1       0.1186802713E-04       2    1    1         0.6519582798E-03      0.1263799186E-02

    ------------------------------------------------
       NWT REQUIRED            3 OUTER ITERATIONS 
       AND A TOTAL OF          5 INNER ITERATIONS.
    ------------------------------------------------

 NO OUTPUT CONTROL FOR STRESS PERIOD   36   TIME STEP   21
 
 SOLVING FOR HEAD 
                                                   Max.-Head-Change                         Max.-Flux-Residual
  Residual-Control   Outer-Iter.   Inner-Iter.     Column Row Layer    Maximum-Head-Change  Column Row Layer    Maximum-Flux-Residual          L2-NORM 
          0                 1           2             2    1     1       0.1787400118E-02       2    1    1         0.9291276002E-01      0.1789934176E+00
          0                 2           2             2    1     1      -0.1738654628E-03       2    1    1        -0.9291287332E-02      0.1781743011E-01
          0                 3           1             2    1     1       0.1183959249E-04       2    1    1         0.6503902973E-03      0.1239775180E-02

    ------------------------------------------------
       NWT REQUIRED            3 OUTER ITERATIONS 
       AND A TOTAL OF          5 INNER ITERATIONS.
    ------------------------------------------------

 NO OUTPUT CONTROL FOR STRESS PERIOD   36   TIME STEP   22
 
 SOLVING FOR HEAD 
                                                   Max.-Head-Change                         Max.-Flux-Residual
  Residual-Control   Outer-Iter.   Inner-Iter.     Column Row Layer    Maximum-Head-Change  Column Row Layer    Maximum-Flux-Residual          L2-NORM 
          0                 1           2             2    1     1       0.1783156503E-02       2    1    1         0.9269132852E-01      0.1760642597E+00
          0                 2           2             2    1     1      -0.1734526729E-03       2    1    1        -0.9269144070E-02      0.1753255797E-01
          0                 3           1             2    1     1       0.1181148280E-04       2    1    1         0.6488402605E-03      0.1220003155E-02

    ------------------------------------------------
       NWT REQUIRED            3 OUTER ITERATIONS 
       AND A TOTAL OF          5 INNER ITERATIONS.
    ------------------------------------------------

 NO OUTPUT CONTROL FOR STRESS PERIOD   36   TIME STEP   23
 
 SOLVING FOR HEAD 
                                                   Max.-Head-Change                         Max.-Flux-Residual
  Residual-Control   Outer-Iter.   Inner-Iter.     Column Row Layer    Maximum-Head-Change  Column Row Layer    Maximum-Flux-Residual          L2-NORM 
          0                 1           2             2    1     1       0.1778917746E-02       2    1    1         0.9247016101E-01      0.1733374817E+00
          0                 2           2             2    1     1      -0.1730403565E-03       2    1    1        -0.9247027256E-02      0.1726695901E-01
          0                 3           1             2    1     1       0.1178340554E-04       2    1    1         0.6472920821E-03      0.1202188939E-02

    ------------------------------------------------
       NWT REQUIRED            3 OUTER ITERATIONS 
       AND A TOTAL OF          5 INNER ITERATIONS.
    ------------------------------------------------

 NO OUTPUT CONTROL FOR STRESS PERIOD   36   TIME STEP   24
 
 SOLVING FOR HEAD 
                                                   Max.-Head-Change                         Max.-Flux-Residual
  Residual-Control   Outer-Iter.   Inner-Iter.     Column Row Layer    Maximum-Head-Change  Column Row Layer    Maximum-Flux-Residual          L2-NORM 
          0                 1           2             2    1     1       0.1774705581E-02       2    1    1         0.9225038560E-01      0.1707977090E+00
          0                 2           2             2    1     1      -0.1726306260E-03       2    1    1        -0.9225049620E-02      0.1701950061E-01
          0                 3           1             2    1     1       0.1175550437E-04       2    1    1         0.6457536298E-03      0.1185652477E-02

    ------------------------------------------------
       NWT REQUIRED            3 OUTER ITERATIONS 
       AND A TOTAL OF          5 INNER ITERATIONS.
    ------------------------------------------------

 NO OUTPUT CONTROL FOR STRESS PERIOD   36   TIME STEP   25
 
 SOLVING FOR HEAD 
                                                   Max.-Head-Change                         Max.-Flux-Residual
  Residual-Control   Outer-Iter.   Inner-Iter.     Column Row Layer    Maximum-Head-Change  Column Row Layer    Maximum-Flux-Residual          L2-NORM 
          0                 1           2             2    1     1       0.1770541668E-02       2    1    1         0.9203312948E-01      0.1684170105E+00
          0                 2           2             2    1     1      -0.1722255900E-03       2    1    1        -0.9203323945E-02      0.1678773035E-01
          0                 3           1             2    1     1       0.1172792318E-04       2    1    1         0.6442328393E-03      0.1170448408E-02

    ------------------------------------------------
       NWT REQUIRED            3 OUTER ITERATIONS 
       AND A TOTAL OF          5 INNER ITERATIONS.
    ------------------------------------------------

 NO OUTPUT CONTROL FOR STRESS PERIOD   36   TIME STEP   26
 
 SOLVING FOR HEAD 
                                                   Max.-Head-Change                         Max.-Flux-Residual
  Residual-Control   Outer-Iter.   Inner-Iter.     Column Row Layer    Maximum-Head-Change  Column Row Layer    Maximum-Flux-Residual          L2-NORM 
          0                 1           2             2    1     1       0.1766381762E-02       2    1    1         0.9181609423E-01      0.1661785185E+00
          0                 2           2             2    1     1      -0.1718209428E-03       2    1    1        -0.9181620313E-02      0.1656880002E-01
          0                 3           1             2    1     1       0.1170036825E-04       2    1    1         0.6427135851E-03      0.1155112329E-02

    ------------------------------------------------
       NWT REQUIRED            3 OUTER ITERATIONS 
       AND A TOTAL OF          5 INNER ITERATIONS.
    ------------------------------------------------

 NO OUTPUT CONTROL FOR STRESS PERIOD   36   TIME STEP   27
 
 SOLVING FOR HEAD 
                                                   Max.-Head-Change                         Max.-Flux-Residual
  Residual-Control   Outer-Iter.   Inner-Iter.     Column Row Layer    Maximum-Head-Change  Column Row Layer    Maximum-Flux-Residual          L2-NORM 
          0                 1           2             2    1     1       0.1762247614E-02       2    1    1         0.9160040719E-01      0.1640780211E+00
          0                 2           2             2    1     1      -0.1714188020E-03       2    1    1        -0.9160051526E-02      0.1636369443E-01
          0                 3           1             2    1     1       0.1167298421E-04       2    1    1         0.6412037863E-03      0.1141627525E-02

    ------------------------------------------------
       NWT REQUIRED            3 OUTER ITERATIONS 
       AND A TOTAL OF          5 INNER ITERATIONS.
    ------------------------------------------------

 NO OUTPUT CONTROL FOR STRESS PERIOD   36   TIME STEP   28
 
 SOLVING FOR HEAD 
                                                   Max.-Head-Change                         Max.-Flux-Residual
  Residual-Control   Outer-Iter.   Inner-Iter.     Column Row Layer    Maximum-Head-Change  Column Row Layer    Maximum-Flux-Residual          L2-NORM 
          0                 1           2             2    1     1       0.1758139026E-02       2    1    1         0.9138605572E-01      0.1620972212E+00
          0                 2           2             2    1     1      -0.1710191471E-03       2    1    1        -0.9138616294E-02      0.1616987626E-01
          0                 3           1             2    1     1       0.1164576915E-04       2    1    1         0.6397033194E-03      0.1128116916E-02

    ------------------------------------------------
       NWT REQUIRED            3 OUTER ITERATIONS 
       AND A TOTAL OF          5 INNER ITERATIONS.
    ------------------------------------------------

 NO OUTPUT CONTROL FOR STRESS PERIOD   36   TIME STEP   29
 
 SOLVING FOR HEAD 
                                                   Max.-Head-Change                         Max.-Flux-Residual
  Residual-Control   Outer-Iter.   Inner-Iter.     Column Row Layer    Maximum-Head-Change  Column Row Layer    Maximum-Flux-Residual          L2-NORM 
          0                 1           2             2    1     1       0.1754055658E-02       2    1    1         0.9117302947E-01      0.1602280455E+00
          0                 2           2             2    1     1      -0.1706219453E-03       2    1    1        -0.9117313577E-02      0.1598615033E-01
          0                 3           1             2    1     1       0.1161872142E-04       2    1    1         0.6382121258E-03      0.1115702792E-02

    ------------------------------------------------
       NWT REQUIRED            3 OUTER ITERATIONS 
       AND A TOTAL OF          5 INNER ITERATIONS.
    ------------------------------------------------

 NO OUTPUT CONTROL FOR STRESS PERIOD   36   TIME STEP   30



 STREAM LISTING     PERIOD     36   STEP       30

 LAYER ROW COL. STREAM  RCH.  FLOW INTO     FLOW TO   FLOW OUT OF   OVRLND.     DIRECT     STREAM       STREAM     STREAM     STREAM   STREAMBED  STREAMBED
                SEG.NO.  NO.  STRM. RCH.    AQUIFER    STRM. RCH.    RUNOFF     PRECIP       ET          HEAD       DEPTH      WIDTH   CONDCTNC.   GRADIENT

   1    1    1     1     1    1.9499E+01  2.1750E-01   1.9282E+01  0.000E+00  0.000E+00  0.000E+00  1.09414E+03  1.090E+00  1.182E+01  5.318E-02  1.363E+00
   1    2    2     1     2    1.9282E+01  3.3555E-01   1.8946E+01  0.000E+00  0.000E+00  0.000E+00  1.08914E+03  1.086E+00  1.173E+01  8.213E-02  1.362E+00
   1    3    3     1     3    1.8946E+01  2.8492E-01   1.8661E+01  0.000E+00  0.000E+00  0.000E+00  1.08350E+03  1.081E+00  1.164E+01  6.982E-02  1.360E+00
   1    3    4     1     4    1.8661E+01  2.6135E-01   1.8400E+01  0.000E+00  0.000E+00  0.000E+00  1.07848E+03  1.076E+00  1.155E+01  6.412E-02  1.359E+00
   1    4    5     2     1    1.6400E+01  3.0673E-01   1.6093E+01  0.000E+00  0.000E+00  0.000E+00  1.07287E+03  9.324E-01  1.200E+01  7.800E-02  1.311E+00
   1    5    6     2     2    1.6093E+01  2.3538E-01   1.5858E+01  0.000E+00  0.000E+00  0.000E+00  1.06743E+03  9.230E-01  1.200E+01  6.000E-02  1.308E+00
   1    6    6     2     3    1.5858E+01  2.3489E-01   1.5623E+01  0.000E+00  0.000E+00  0.000E+00  1.06271E+03  9.149E-01  1.200E+01  6.000E-02  1.305E+00
   1    7    6     2     4    1.5623E+01  2.3440E-01   1.5389E+01  0.000E+00  0.000E+00  0.000E+00  1.05798E+03  9.067E-01  1.200E+01  6.000E-02  1.302E+00
   1    8    6     2     5    1.5389E+01  2.3390E-01   1.5155E+01  0.000E+00  0.000E+00  0.000E+00  1.05326E+03  8.984E-01  1.200E+01  6.000E-02  1.299E+00
   1    3    5     3     1    2.0000E+00  2.8252E-01   1.7175E+00  0.000E+00  0.000E+00  0.000E+00  1.07555E+03  1.909E+00  9.636E+00  7.227E-02  1.955E+00
   1    3    6     3     2    1.7175E+00  2.4905E-01   1.4684E+00  0.000E+00  0.000E+00  0.000E+00  1.07264E+03  1.727E+00  8.909E+00  6.682E-02  1.864E+00
   1    3    7     3     3    1.4684E+00  1.9718E-01   1.2712E+00  0.000E+00  0.000E+00  0.000E+00  1.06987E+03  1.555E+00  8.218E+00  5.547E-02  1.777E+00
   1    4    8     3     4    1.2712E+00  2.2567E-01   1.0456E+00  0.000E+00  0.000E+00  0.000E+00  1.06682E+03  1.364E+00  7.455E+00  6.709E-02  1.682E+00
   1    5    8     3     5    1.0456E+00  1.5790E-01   8.8768E-01  0.000E+00  0.000E+00  0.000E+00  1.06362E+03  1.164E+00  6.655E+00  4.991E-02  1.582E+00
   1    6    8     3     6    8.8768E-01  5.5980E-02   8.3170E-01  0.000E+00  0.000E+00  0.000E+00  1.06158E+03  1.036E+00  6.145E+00  1.844E-02  1.518E+00
   1    5   10     4     1    1.0000E+01  9.0919E-02   9.9091E+00  0.000E+00  0.000E+00  0.000E+00  1.07836E+03  6.368E-01  1.000E+01  2.500E-02  1.212E+00
   1    5    9     4     2    9.9091E+00  1.8158E-01   9.7275E+00  0.000E+00  0.000E+00  0.000E+00  1.07154E+03  6.315E-01  1.000E+01  5.000E-02  1.211E+00
   1    6    8     4     3    9.7275E+00  1.2689E-01   9.6006E+00  0.000E+00  0.000E+00  0.000E+00  1.06381E+03  6.256E-01  1.000E+01  3.500E-02  1.209E+00
   1    6    8     5     1    1.0432E+01  2.2686E-01   1.0205E+01  0.000E+00  0.000E+00  0.000E+00  1.05868E+03  6.790E-01  1.542E+01  6.166E-02  1.226E+00
   1    7    7     5     2    1.0205E+01  2.7894E-01   9.9265E+00  0.000E+00  0.000E+00  0.000E+00  1.05417E+03  6.732E-01  1.519E+01  7.594E-02  1.224E+00
   1    8    7     5     3    9.9265E+00  1.9221E-01   9.7343E+00  0.000E+00  0.000E+00  0.000E+00  1.04992E+03  6.676E-01  1.497E+01  5.241E-02  1.223E+00
   1    8    6     5     4    9.7343E+00  1.3577E-01   9.5985E+00  0.000E+00  0.000E+00  0.000E+00  1.04691E+03  6.637E-01  1.482E+01  3.706E-02  1.221E+00
   1    9    6     6     1    2.4753E+01  2.5261E-01   2.4501E+01  0.000E+00  0.000E+00  0.000E+00  1.04394E+03  1.210E+00  1.200E+01  6.000E-02  1.403E+00
   1   10    7     6     2    2.4501E+01  2.5216E-01   2.4249E+01  0.000E+00  0.000E+00  0.000E+00  1.03938E+03  1.203E+00  1.200E+01  6.000E-02  1.401E+00
   1   11    7     6     3    2.4249E+01  2.5171E-01   2.3997E+01  0.000E+00  0.000E+00  0.000E+00  1.03483E+03  1.195E+00  1.200E+01  6.000E-02  1.398E+00
   1   12    7     6     4    2.3997E+01  2.5126E-01   2.3746E+01  0.000E+00  0.000E+00  0.000E+00  1.03028E+03  1.188E+00  1.200E+01  6.000E-02  1.396E+00
   1   13    7     6     5    2.3746E+01 -2.3968E-02   2.3770E+01  0.000E+00  0.000E+00  0.000E+00  1.02709E+03  1.184E+00  1.200E+01  2.400E-01 -3.329E-02
   1   14    9     7     1    1.5000E+02  1.3323E+00   1.4867E+02  0.000E+00  0.000E+00  0.000E+00  1.03987E+03  2.288E+00  5.529E+01  5.593E-01  7.940E-01
   1   13    8     7     2    1.4867E+02  1.8020E+00   1.4687E+02  0.000E+00  0.000E+00  0.000E+00  1.03478E+03  2.279E+00  5.526E+01  6.148E-01  9.770E-01
   1   13    7     7     3    1.4687E+02  1.3945E+00   1.4547E+02  0.000E+00  0.000E+00  0.000E+00  1.02969E+03  2.271E+00  5.522E+01  5.585E-01  8.323E-01
   1   13    6     8     1    1.6924E+02  8.3497E-01   1.6841E+02  0.000E+00  0.000E+00  0.000E+00  1.02482E+03  2.945E+00  4.270E+01  4.351E-01  6.397E-01
   1   13    5     8     2    1.6841E+02  9.1840E-02   1.6831E+02  0.000E+00  0.000E+00  0.000E+00  1.01857E+03  2.941E+00  4.265E+01  4.346E-01  7.043E-02
   1   13    4     8     3    1.6831E+02 -2.7273E+00   1.7104E+02  0.000E+00  0.000E+00  0.000E+00  1.01233E+03  2.950E+00  4.278E+01  4.359E+00 -2.086E-01
   1   13    3     8     4    1.7104E+02 -3.7872E+00   1.7483E+02  0.000E+00  0.000E+00  0.000E+00  1.00610E+03  2.971E+00  4.308E+01  4.390E+00 -2.875E-01
   1   13    2     8     5    1.7483E+02 -2.6200E+00   1.7745E+02  0.000E+00  0.000E+00  0.000E+00  9.99867E+02  2.992E+00  4.338E+01  4.421E+00 -1.976E-01
   1   13    1     8     6    1.7745E+02 -2.0111E+00   1.7946E+02  0.000E+00  0.000E+00  0.000E+00  9.94881E+02  3.006E+00  4.359E+01  2.665E+00 -2.515E-01
   1    8    6     9     1    0.0000E+00  0.0000E+00   0.0000E+00  0.000E+00  0.000E+00  0.000E+00  1.07875E+03  0.000E+00  4.000E+00  0.000E+00  1.000E+00
   1    8    5     9     2    0.0000E+00  0.0000E+00   0.0000E+00  0.000E+00  0.000E+00  0.000E+00  1.07825E+03  0.000E+00  4.000E+00  0.000E+00  1.000E+00





UNSATURATED ZONE PACKAGE VOLUMETRIC BUDGET FOR  TIME STEP    30 STRESS PERIOD   36
  ------------------------------------------------------------------------------



     CUMULATIVE VOLUMES      L**3       RATES FOR THIS TIME STEP      L**3/T
     ------------------                 ------------------------

           IN:                                      IN:
           ---                                      ---
        INFILTRATION =   406632403.1941          INFILTRATION =           4.4075

          OUT:                                     OUT:
          ----                                     ----
              UZF ET =   303162107.5092                UZF ET =           0.7250
        UZF RECHARGE =     1282289.7950          UZF RECHARGE =       0.0000E+00

            IN - OUT =   102188005.8899              IN - OUT =           3.6825

          STORAGE:                                 STORAGE:
          --------                                 --------
      STORAGE CHANGE =   102189167.5198        STORAGE CHANGE =           3.6825

 PERCENT DISCREPANCY IS DIFFERENCE BETWEEN IN-OUT MINUS CHANGE IN STORAGE
 DIVIDED BY THE AVERAGE OF IN AND OUT TIMES 100

 PERCENT DISCREPANCY =          -0.00     PERCENT DISCREPANCY =           0.00






1
  VOLUMETRIC BUDGET FOR ENTIRE MODEL AT END OF TIME STEP   30, STRESS PERIOD  36
  ------------------------------------------------------------------------------

     CUMULATIVE VOLUMES      L**3       RATES FOR THIS TIME STEP      L**3/T
     ------------------                 ------------------------

           IN:                                      IN:
           ---                                      ---
               AG WELLS  =           0.0000                 AG WELLS  =           0.0000
        DIVERSION SEGMEN =      848802.5000          DIVERSION SEGMEN =           0.0000
    TS         GW IRRIGA =           0.0000      TS         GW IRRIGA =           0.0000
    TION         SW IRRI =           0.0000      TION         SW IRRI =           0.0000
    GATION      SYSTEM L =           0.0000      GATION      SYSTEM L =           0.0000
    OSSES GW      SYSTEM =           0.1856      OSSES GW      SYSTEM =           0.0000

                TOTAL IN =      848802.6875                  TOTAL IN =           0.0000

          OUT:                                     OUT:
          ----                                     ----
               AG WELLS  =           0.0000                 AG WELLS  =           0.0000
        DIVERSION SEGMEN =           0.0000          DIVERSION SEGMEN =           0.0000
    TS         GW IRRIGA =           0.0000      TS         GW IRRIGA =           0.0000
    TION         SW IRRI =      848819.6875      TION         SW IRRI =           0.0000
    GATION      SYSTEM L =           0.0000      GATION      SYSTEM L =           0.0000
    OSSES GW      SYSTEM =           0.0000      OSSES GW      SYSTEM =           0.0000

               TOTAL OUT =      848819.6875                 TOTAL OUT =           0.0000

                IN - OUT =         -17.0000                  IN - OUT =           0.0000

     PERCENT DISCREPANCY =          -0.00         PERCENT DISCREPANCY =           0.00



1
  VOLUMETRIC BUDGET FOR ENTIRE MODEL AT END OF TIME STEP   30, STRESS PERIOD  36
  ------------------------------------------------------------------------------

     CUMULATIVE VOLUMES      L**3       RATES FOR THIS TIME STEP      L**3/T
     ------------------                 ------------------------

           IN:                                      IN:
           ---                                      ---
             STORAGE     =    46785136.0000               STORAGE     =           0.5048
       CONSTANT HEAD     =           0.0000         CONSTANT HEAD     =           0.0000
     HEAD DEP BOUNDS     =    26316968.0000       HEAD DEP BOUNDS     =           0.2855
      STREAM LEAKAGE     =  1101923712.0000        STREAM LEAKAGE     =          11.2094
        UZF RECHARGE     =     1282289.6250          UZF RECHARGE     =           0.0000
               GW ET     =           0.0000                 GW ET     =           0.0000
     SURFACE LEAKAGE     =           0.0000       SURFACE LEAKAGE     =           0.0000
           AG WELLS      =           0.0000             AG WELLS      =           0.0000

                TOTAL IN =  1176308096.0000                  TOTAL IN =          11.9998

          OUT:                                     OUT:
          ----                                     ----
             STORAGE     =   142902912.0000               STORAGE     =           0.5399
       CONSTANT HEAD     =           0.0000         CONSTANT HEAD     =           0.0000
     HEAD DEP BOUNDS     =    26950454.0000       HEAD DEP BOUNDS     =           0.2902
      STREAM LEAKAGE     =   989723968.0000        STREAM LEAKAGE     =          11.1697
        UZF RECHARGE     =           0.0000          UZF RECHARGE     =           0.0000
               GW ET     =    16750928.0000                 GW ET     =           0.0000
     SURFACE LEAKAGE     =           0.0000       SURFACE LEAKAGE     =           0.0000
           AG WELLS      =           0.0000             AG WELLS      =           0.0000

               TOTAL OUT =  1176328320.0000                 TOTAL OUT =          11.9998

                IN - OUT =      -20224.0000                  IN - OUT =      -5.7220E-06

     PERCENT DISCREPANCY =          -0.00         PERCENT DISCREPANCY =          -0.00






         TIME SUMMARY AT END OF TIME STEP   30 IN STRESS PERIOD   36
                    SECONDS     MINUTES      HOURS       DAYS        YEARS
                    -----------------------------------------------------------
   TIME STEP LENGTH  87667.      1461.1      24.352      1.0147     2.77799E-03
 STRESS PERIOD TIME 2.63000E+06  43833.      730.56      30.440     8.33397E-02
         TOTAL TIME 9.21360E+07 1.53560E+06  25593.      1066.4      2.9196    
1
1
                            STRESS PERIOD NO.   37, LENGTH =   2630000.    
                            -----------------------------------------------

                              NUMBER OF TIME STEPS =    30

                               MULTIPLIER FOR DELT =     1.000

                            INITIAL TIME STEP SIZE =   87666.66    

 REUSING NON-PARAMETER GHB CELLS FROM LAST STRESS PERIOD

      2 GHB CELLS

 REUSING STREAM SEGMENT DATA FROM LAST STRESS PERIOD



            AREAL INFILTRATION RATE
 READING ON UNIT   19 WITH FORMAT: (10F4.0)            

            1           2           3           4           5           6           7           8           9          10
 ........................................................................................................................
   1   1.2000E-09   0.000       0.000       0.000       0.000       0.000       0.000       0.000       0.000       0.000    
   2   2.1000E-09  2.0000E-09  8.0000E-10  8.5000E-09   0.000       0.000       0.000       0.000       0.000       0.000    
   3   5.0000E-10  1.1000E-09  8.8000E-09  5.5000E-09   0.000       0.000       0.000       0.000       0.000       0.000    
   4   8.5000E-09  1.1000E-09  1.1000E-09  1.1000E-09  2.0000E-09   0.000       0.000       0.000       0.000       0.000    
   5   8.5000E-09  1.1000E-09  1.1000E-09  1.1000E-09  1.1000E-09   0.000       0.000       0.000       0.000       0.000    
   6   8.5000E-09  5.2000E-09  2.1000E-09  1.1000E-09  1.5000E-09   0.000       0.000       0.000       0.000       0.000    
   7   8.5000E-09  5.2000E-09  2.1000E-09  1.2000E-09  2.0000E-09   0.000       0.000       0.000       0.000       0.000    
   8   5.0000E-10  5.2000E-09  2.1000E-09  1.2000E-09  5.0000E-09   0.000       0.000       0.000       0.000       0.000    
   9   5.0000E-10  5.2000E-09  2.1000E-09  1.2000E-09  5.0000E-09   0.000       0.000       0.000       0.000       0.000    
  10   5.0000E-10  5.2000E-09  2.1000E-09  1.2000E-09  5.8000E-09   0.000       0.000       0.000       0.000       0.000    
  11   1.0000E-10  1.1000E-09  1.1000E-09  1.2000E-09  5.0000E-09   0.000       0.000       0.000       0.000       0.000    
  12   1.1000E-09  1.1000E-09  1.1000E-09  1.1000E-09  2.0000E-09   0.000       0.000       0.000       0.000       0.000    
  13   1.1000E-09  2.2000E-09  2.2000E-09  2.1000E-09  1.0000E-09   0.000       0.000       0.000       0.000       0.000    
  14   2.0000E-10  5.5000E-09  5.5000E-09  5.2000E-09  1.0000E-09   0.000       0.000       0.000       0.000       0.000    
  15    0.000      8.8000E-09  8.8000E-09   0.000       0.000       0.000       0.000       0.000       0.000       0.000    

                  ET RATE =  5.000000E-10

 USING ET EXTINCTION DEPTH FROM PREVIOUS STRESS PERIOD. CURRENT PERIOD IS:      37

 USING EXTINCTION WATER CONTENT FROM PREVIOUS STRESS PERIOD. CURRENT PERIOD IS:      37

 USING AIR ENTRY PRESSURE FROM PREVIOUS STRESS PERIOD. CURRENT PERIOD IS:      37

 USING ROOT PRESSURE HEAD FROM PREVIOUS STRESS PERIOD. CURRENT PERIOD IS:      37

 USING ROOT ACTIVITY FROM PREVIOUS STRESS PERIOD. CURRENT PERIOD IS:      37

 PROCESSING AG STRESS PERIOD DATA

 READING AG STRESS PERIOD DATA

 READING IRRIGATION SEGMENT

 READING IRRIGATION WELL

 READING SUPPLEMENTAL WELL

 END PROCESSING AG STRESS PERIOD DATA OPTIONS
 
 SOLVING FOR HEAD 
                                                   Max.-Head-Change                         Max.-Flux-Residual
  Residual-Control   Outer-Iter.   Inner-Iter.     Column Row Layer    Maximum-Head-Change  Column Row Layer    Maximum-Flux-Residual          L2-NORM 
          0                 1           2             2    1     1       0.1749766362E-02       2    1    1         0.9096131090E-01      0.1693893065E+00
          0                 2           2             2    1     1      -0.1702047176E-03       2    1    1        -0.9096141972E-02      0.1687033756E-01
          0                 3           1             2    1     1       0.1159030926E-04       2    1    1         0.6367301040E-03      0.1174631198E-02

    ------------------------------------------------
       NWT REQUIRED            3 OUTER ITERATIONS 
       AND A TOTAL OF          5 INNER ITERATIONS.
    ------------------------------------------------

 NO OUTPUT CONTROL FOR STRESS PERIOD   37   TIME STEP    1
 
 SOLVING FOR HEAD 
                                                   Max.-Head-Change                         Max.-Flux-Residual
  Residual-Control   Outer-Iter.   Inner-Iter.     Column Row Layer    Maximum-Head-Change  Column Row Layer    Maximum-Flux-Residual          L2-NORM 
          0                 1           2             2    1     1       0.1744865387E-02       2    1    1         0.9073891136E-01      0.2078600247E+00
          0                 2           2             2    1     1      -0.1697279967E-03       2    1    1        -0.9073902695E-02      0.2059190217E-01
          0                 3           1             2    1     1       0.1155784574E-04       2    1    1         0.6351733535E-03      0.1423471336E-02

    ------------------------------------------------
       NWT REQUIRED            3 OUTER ITERATIONS 
       AND A TOTAL OF          5 INNER ITERATIONS.
    ------------------------------------------------

 NO OUTPUT CONTROL FOR STRESS PERIOD   37   TIME STEP    2
 
 SOLVING FOR HEAD 
                                                   Max.-Head-Change                         Max.-Flux-Residual
  Residual-Control   Outer-Iter.   Inner-Iter.     Column Row Layer    Maximum-Head-Change  Column Row Layer    Maximum-Flux-Residual          L2-NORM 
          0                 1           2             2    1     1       0.1739995300E-02       2    1    1         0.9048479033E-01      0.2022635176E+00
          0                 2           2             2    1     1      -0.1692542686E-03       2    1    1        -0.9048490497E-02      0.2005277005E-01
          0                 3           1             2    1     1       0.1152558646E-04       2    1    1         0.6333944924E-03      0.1387717242E-02

    ------------------------------------------------
       NWT REQUIRED            3 OUTER ITERATIONS 
       AND A TOTAL OF          5 INNER ITERATIONS.
    ------------------------------------------------

 NO OUTPUT CONTROL FOR STRESS PERIOD   37   TIME STEP    3
 
 SOLVING FOR HEAD 
                                                   Max.-Head-Change                         Max.-Flux-Residual
  Residual-Control   Outer-Iter.   Inner-Iter.     Column Row Layer    Maximum-Head-Change  Column Row Layer    Maximum-Flux-Residual          L2-NORM 
          0                 1           2             2    1     1       0.1735156039E-02       2    1    1         0.9023228097E-01      0.1971765465E+00
          0                 2           2             2    1     1      -0.1687835388E-03       2    1    1        -0.9023239443E-02      0.1956122711E-01
          0                 3           1             2    1     1       0.1149353191E-04       2    1    1         0.6316269348E-03      0.1354328456E-02

    ------------------------------------------------
       NWT REQUIRED            3 OUTER ITERATIONS 
       AND A TOTAL OF          5 INNER ITERATIONS.
    ------------------------------------------------

 NO OUTPUT CONTROL FOR STRESS PERIOD   37   TIME STEP    4
 
 SOLVING FOR HEAD 
                                                   Max.-Head-Change                         Max.-Flux-Residual
  Residual-Control   Outer-Iter.   Inner-Iter.     Column Row Layer    Maximum-Head-Change  Column Row Layer    Maximum-Flux-Residual          L2-NORM 
          0                 1           2             2    1     1       0.1730347210E-02       2    1    1         0.8998136997E-01      0.1925740960E+00
          0                 2           2             2    1     1      -0.1683157695E-03       2    1    1        -0.8998148250E-02      0.1915196876E-01
          0                 3           1             2    1     1       0.1146167853E-04       2    1    1         0.6298705546E-03      0.1327906475E-02

    ------------------------------------------------
       NWT REQUIRED            3 OUTER ITERATIONS 
       AND A TOTAL OF          5 INNER ITERATIONS.
    ------------------------------------------------

 NO OUTPUT CONTROL FOR STRESS PERIOD   37   TIME STEP    5
 
 SOLVING FOR HEAD 
                                                   Max.-Head-Change                         Max.-Flux-Residual
  Residual-Control   Outer-Iter.   Inner-Iter.     Column Row Layer    Maximum-Head-Change  Column Row Layer    Maximum-Flux-Residual          L2-NORM 
          0                 1           2             2    1     1       0.1725568565E-02       2    1    1         0.8973203681E-01      0.1883078349E+00
          0                 2           2             2    1     1      -0.1678509363E-03       2    1    1        -0.8973214846E-02      0.1860262003E-01
          0                 3           1             2    1     1       0.1143002537E-04       2    1    1         0.6281252141E-03      0.1318963858E-02

    ------------------------------------------------
       NWT REQUIRED            3 OUTER ITERATIONS 
       AND A TOTAL OF          5 INNER ITERATIONS.
    ------------------------------------------------

 NO OUTPUT CONTROL FOR STRESS PERIOD   37   TIME STEP    6
 
 SOLVING FOR HEAD 
                                                   Max.-Head-Change                         Max.-Flux-Residual
  Residual-Control   Outer-Iter.   Inner-Iter.     Column Row Layer    Maximum-Head-Change  Column Row Layer    Maximum-Flux-Residual          L2-NORM 
          0                 1           2             2    1     1       0.1720819819E-02       2    1    1         0.8948426866E-01      0.1844289752E+00
          0                 2           2             2    1     1      -0.1673890114E-03       2    1    1        -0.8948437944E-02      0.1833101878E-01
          0                 3           1             2    1     1       0.1139856960E-04       2    1    1         0.6263908179E-03      0.1272869801E-02

    ------------------------------------------------
       NWT REQUIRED            3 OUTER ITERATIONS 
       AND A TOTAL OF          5 INNER ITERATIONS.
    ------------------------------------------------

 NO OUTPUT CONTROL FOR STRESS PERIOD   37   TIME STEP    7
 
 SOLVING FOR HEAD 
                                                   Max.-Head-Change                         Max.-Flux-Residual
  Residual-Control   Outer-Iter.   Inner-Iter.     Column Row Layer    Maximum-Head-Change  Column Row Layer    Maximum-Flux-Residual          L2-NORM 
          0                 1           2             2    1     1       0.1716100660E-02       2    1    1         0.8923805072E-01      0.1808646997E+00
          0                 2           2             2    1     1      -0.1669299646E-03       2    1    1        -0.8923816056E-02      0.1798665637E-01
          0                 3           1             2    1     1       0.1136731050E-04       2    1    1         0.6246672944E-03      0.1249911967E-02

    ------------------------------------------------
       NWT REQUIRED            3 OUTER ITERATIONS 
       AND A TOTAL OF          5 INNER ITERATIONS.
    ------------------------------------------------

 NO OUTPUT CONTROL FOR STRESS PERIOD   37   TIME STEP    8
 
 SOLVING FOR HEAD 
                                                   Max.-Head-Change                         Max.-Flux-Residual
  Residual-Control   Outer-Iter.   Inner-Iter.     Column Row Layer    Maximum-Head-Change  Column Row Layer    Maximum-Flux-Residual          L2-NORM 
          0                 1           2             2    1     1       0.1711388798E-02       2    1    1         0.8899222568E-01      0.1775821075E+00
          0                 2           2             2    1     1      -0.1664716279E-03       2    1    1        -0.8899233492E-02      0.1766845686E-01
          0                 3           1             2    1     1       0.1133609945E-04       2    1    1         0.6229465095E-03      0.1228448231E-02

    ------------------------------------------------
       NWT REQUIRED            3 OUTER ITERATIONS 
       AND A TOTAL OF          5 INNER ITERATIONS.
    ------------------------------------------------

 NO OUTPUT CONTROL FOR STRESS PERIOD   37   TIME STEP    9
 
 SOLVING FOR HEAD 
                                                   Max.-Head-Change                         Max.-Flux-Residual
  Residual-Control   Outer-Iter.   Inner-Iter.     Column Row Layer    Maximum-Head-Change  Column Row Layer    Maximum-Flux-Residual          L2-NORM 
          0                 1           2             2    1     1       0.1706727923E-02       2    1    1         0.8874906131E-01      0.1745485976E+00
          0                 2           2             2    1     1      -0.1660182502E-03       2    1    1        -0.8874916935E-02      0.1737483174E-01
          0                 3           1             2    1     1       0.1130522637E-04       2    1    1         0.6212443665E-03      0.1209163206E-02

    ------------------------------------------------
       NWT REQUIRED            3 OUTER ITERATIONS 
       AND A TOTAL OF          5 INNER ITERATIONS.
    ------------------------------------------------

 NO OUTPUT CONTROL FOR STRESS PERIOD   37   TIME STEP   10
 
 SOLVING FOR HEAD 
                                                   Max.-Head-Change                         Max.-Flux-Residual
  Residual-Control   Outer-Iter.   Inner-Iter.     Column Row Layer    Maximum-Head-Change  Column Row Layer    Maximum-Flux-Residual          L2-NORM 
          0                 1           2             2    1     1       0.1702095801E-02       2    1    1         0.8850739945E-01      0.1717282936E+00
          0                 2           2             2    1     1      -0.1655676699E-03       2    1    1        -0.8850750691E-02      0.1710086966E-01
          0                 3           1             2    1     1       0.1127454334E-04       2    1    1         0.6195527142E-03      0.1190675253E-02

    ------------------------------------------------
       NWT REQUIRED            3 OUTER ITERATIONS 
       AND A TOTAL OF          5 INNER ITERATIONS.
    ------------------------------------------------

 NO OUTPUT CONTROL FOR STRESS PERIOD   37   TIME STEP   11
 
 SOLVING FOR HEAD 
                                                   Max.-Head-Change                         Max.-Flux-Residual
  Residual-Control   Outer-Iter.   Inner-Iter.     Column Row Layer    Maximum-Head-Change  Column Row Layer    Maximum-Flux-Residual          L2-NORM 
          0                 1           2             2    1     1       0.1697492064E-02       2    1    1         0.8826722833E-01      0.1691100764E+00
          0                 2           2             2    1     1      -0.1651198500E-03       2    1    1        -0.8826733474E-02      0.1684654009E-01
          0                 3           1             2    1     1       0.1124404798E-04       2    1    1         0.6178714976E-03      0.1173702359E-02

    ------------------------------------------------
       NWT REQUIRED            3 OUTER ITERATIONS 
       AND A TOTAL OF          5 INNER ITERATIONS.
    ------------------------------------------------

 NO OUTPUT CONTROL FOR STRESS PERIOD   37   TIME STEP   12
 
 SOLVING FOR HEAD 
                                                   Max.-Head-Change                         Max.-Flux-Residual
  Residual-Control   Outer-Iter.   Inner-Iter.     Column Row Layer    Maximum-Head-Change  Column Row Layer    Maximum-Flux-Residual          L2-NORM 
          0                 1           2             2    1     1       0.1692894565E-02       2    1    1         0.8802738758E-01      0.1666638241E+00
          0                 2           2             2    1     1      -0.1646726377E-03       2    1    1        -0.8802749316E-02      0.1660807079E-01
          0                 3           1             2    1     1       0.1121359523E-04       2    1    1         0.6161926251E-03      0.1157001904E-02

    ------------------------------------------------
       NWT REQUIRED            3 OUTER ITERATIONS 
       AND A TOTAL OF          5 INNER ITERATIONS.
    ------------------------------------------------

 NO OUTPUT CONTROL FOR STRESS PERIOD   37   TIME STEP   13
 
 SOLVING FOR HEAD 
                                                   Max.-Head-Change                         Max.-Flux-Residual
  Residual-Control   Outer-Iter.   Inner-Iter.     Column Row Layer    Maximum-Head-Change  Column Row Layer    Maximum-Flux-Residual          L2-NORM 
          0                 1           2             2    1     1       0.1688346859E-02       2    1    1         0.8779015309E-01      0.1643820888E+00
          0                 2           2             2    1     1      -0.1642302684E-03       2    1    1        -0.8779025776E-02      0.1638535598E-01
          0                 3           1             2    1     1       0.1118347122E-04       2    1    1         0.6145319671E-03      0.1142145098E-02

    ------------------------------------------------
       NWT REQUIRED            3 OUTER ITERATIONS 
       AND A TOTAL OF          5 INNER ITERATIONS.
    ------------------------------------------------

 NO OUTPUT CONTROL FOR STRESS PERIOD   37   TIME STEP   14
 
 SOLVING FOR HEAD 
                                                   Max.-Head-Change                         Max.-Flux-Residual
  Residual-Control   Outer-Iter.   Inner-Iter.     Column Row Layer    Maximum-Head-Change  Column Row Layer    Maximum-Flux-Residual          L2-NORM 
          0                 1           2             2    1     1       0.1683804820E-02       2    1    1         0.8755321741E-01      0.1622254309E+00
          0                 2           2             2    1     1      -0.1637884507E-03       2    1    1        -0.8755332121E-02      0.1617111434E-01
          0                 3           1             2    1     1       0.1115338532E-04       2    1    1         0.6128734157E-03      0.1127751511E-02

    ------------------------------------------------
       NWT REQUIRED            3 OUTER ITERATIONS 
       AND A TOTAL OF          5 INNER ITERATIONS.
    ------------------------------------------------

 NO OUTPUT CONTROL FOR STRESS PERIOD   37   TIME STEP   15
 
 SOLVING FOR HEAD 
                                                   Max.-Head-Change                         Max.-Flux-Residual
  Residual-Control   Outer-Iter.   Inner-Iter.     Column Row Layer    Maximum-Head-Change  Column Row Layer    Maximum-Flux-Residual          L2-NORM 
          0                 1           2             2    1     1       0.1679312147E-02       2    1    1         0.8731885858E-01      0.1602141587E+00
          0                 2           2             2    1     1      -0.1633514350E-03       2    1    1        -0.8731896176E-02      0.1597868673E-01
          0                 3           1             2    1     1       0.1112362578E-04       2    1    1         0.6112328925E-03      0.1115483943E-02

    ------------------------------------------------
       NWT REQUIRED            3 OUTER ITERATIONS 
       AND A TOTAL OF          5 INNER ITERATIONS.
    ------------------------------------------------

 NO OUTPUT CONTROL FOR STRESS PERIOD   37   TIME STEP   16
 
 SOLVING FOR HEAD 
                                                   Max.-Head-Change                         Max.-Flux-Residual
  Residual-Control   Outer-Iter.   Inner-Iter.     Column Row Layer    Maximum-Head-Change  Column Row Layer    Maximum-Flux-Residual          L2-NORM 
          0                 1           2             2    1     1       0.1674824455E-02       2    1    1         0.8708477616E-01      0.1583071391E+00
          0                 2           2             2    1     1      -0.1629149037E-03       2    1    1        -0.8708487847E-02      0.1579200498E-01
          0                 3           1             2    1     1       0.1109389986E-04       2    1    1         0.6095943197E-03      0.1101602950E-02

    ------------------------------------------------
       NWT REQUIRED            3 OUTER ITERATIONS 
       AND A TOTAL OF          5 INNER ITERATIONS.
    ------------------------------------------------

 NO OUTPUT CONTROL FOR STRESS PERIOD   37   TIME STEP   17
 
 SOLVING FOR HEAD 
                                                   Max.-Head-Change                         Max.-Flux-Residual
  Residual-Control   Outer-Iter.   Inner-Iter.     Column Row Layer    Maximum-Head-Change  Column Row Layer    Maximum-Flux-Residual          L2-NORM 
          0                 1           2             2    1     1       0.1670385584E-02       2    1    1         0.8685323522E-01      0.1565065646E+00
          0                 2           2             2    1     1      -0.1624831211E-03       2    1    1        -0.8685333671E-02      0.1561576392E-01
          0                 3           1             2    1     1       0.1106449699E-04       2    1    1         0.6079735129E-03      0.1089845420E-02

    ------------------------------------------------
       NWT REQUIRED            3 OUTER ITERATIONS 
       AND A TOTAL OF          5 INNER ITERATIONS.
    ------------------------------------------------

 NO OUTPUT CONTROL FOR STRESS PERIOD   37   TIME STEP   18
 
 SOLVING FOR HEAD 
                                                   Max.-Head-Change                         Max.-Flux-Residual
  Residual-Control   Outer-Iter.   Inner-Iter.     Column Row Layer    Maximum-Head-Change  Column Row Layer    Maximum-Flux-Residual          L2-NORM 
          0                 1           2             2    1     1       0.1665951284E-02       2    1    1         0.8662194230E-01      0.1547917527E+00
          0                 2           2             2    1     1      -0.1620517838E-03       2    1    1        -0.8662204297E-02      0.1544741742E-01
          0                 3           1             2    1     1       0.1103512465E-04       2    1    1         0.6063544745E-03      0.1078205976E-02

    ------------------------------------------------
       NWT REQUIRED            3 OUTER ITERATIONS 
       AND A TOTAL OF          5 INNER ITERATIONS.
    ------------------------------------------------

 NO OUTPUT CONTROL FOR STRESS PERIOD   37   TIME STEP   19
 
 SOLVING FOR HEAD 
                                                   Max.-Head-Change                         Max.-Flux-Residual
  Residual-Control   Outer-Iter.   Inner-Iter.     Column Row Layer    Maximum-Head-Change  Column Row Layer    Maximum-Flux-Residual          L2-NORM 
          0                 1           2             2    1     1       0.1661565276E-02       2    1    1         0.8639316984E-01      0.1531679100E+00
          0                 2           2             2    1     1      -0.1616251435E-03       2    1    1        -0.8639326973E-02      0.1528801378E-01
          0                 3           1             2    1     1       0.1100607230E-04       2    1    1         0.6047530513E-03      0.1067849691E-02

    ------------------------------------------------
       NWT REQUIRED            3 OUTER ITERATIONS 
       AND A TOTAL OF          5 INNER ITERATIONS.
    ------------------------------------------------

 NO OUTPUT CONTROL FOR STRESS PERIOD   37   TIME STEP   20
 
 SOLVING FOR HEAD 
                                                   Max.-Head-Change                         Max.-Flux-Residual
  Residual-Control   Outer-Iter.   Inner-Iter.     Column Row Layer    Maximum-Head-Change  Column Row Layer    Maximum-Flux-Residual          L2-NORM 
          0                 1           2             2    1     1       0.1657183384E-02       2    1    1         0.8616461773E-01      0.1516118376E+00
          0                 2           2             2    1     1      -0.1611989040E-03       2    1    1        -0.8616471692E-02      0.1513508476E-01
          0                 3           1             2    1     1       0.1097704716E-04       2    1    1         0.6031532044E-03      0.1056994788E-02

    ------------------------------------------------
       NWT REQUIRED            3 OUTER ITERATIONS 
       AND A TOTAL OF          5 INNER ITERATIONS.
    ------------------------------------------------

 NO OUTPUT CONTROL FOR STRESS PERIOD   37   TIME STEP   21
 
 SOLVING FOR HEAD 
                                                   Max.-Head-Change                         Max.-Flux-Residual
  Residual-Control   Outer-Iter.   Inner-Iter.     Column Row Layer    Maximum-Head-Change  Column Row Layer    Maximum-Flux-Residual          L2-NORM 
          0                 1           2             2    1     1       0.1652827300E-02       2    1    1         0.8593742079E-01      0.1501340283E+00
          0                 2           2             2    1     1      -0.1607751746E-03       2    1    1        -0.8593751930E-02      0.1498927690E-01
          0                 3           1             2    1     1       0.1094819267E-04       2    1    1         0.6015628033E-03      0.1046953823E-02

    ------------------------------------------------
       NWT REQUIRED            3 OUTER ITERATIONS 
       AND A TOTAL OF          5 INNER ITERATIONS.
    ------------------------------------------------

 NO OUTPUT CONTROL FOR STRESS PERIOD   37   TIME STEP   22
 
 SOLVING FOR HEAD 
                                                   Max.-Head-Change                         Max.-Flux-Residual
  Residual-Control   Outer-Iter.   Inner-Iter.     Column Row Layer    Maximum-Head-Change  Column Row Layer    Maximum-Flux-Residual          L2-NORM 
          0                 1           2             2    1     1       0.1648518740E-02       2    1    1         0.8571270390E-01      0.1487153422E+00
          0                 2           2             2    1     1      -0.1603560680E-03       2    1    1        -0.8571280165E-02      0.1484968754E-01
          0                 3           1             2    1     1       0.1091965271E-04       2    1    1         0.5999897701E-03      0.1037381251E-02

    ------------------------------------------------
       NWT REQUIRED            3 OUTER ITERATIONS 
       AND A TOTAL OF          5 INNER ITERATIONS.
    ------------------------------------------------

 NO OUTPUT CONTROL FOR STRESS PERIOD   37   TIME STEP   23
 
 SOLVING FOR HEAD 
                                                   Max.-Head-Change                         Max.-Flux-Residual
  Residual-Control   Outer-Iter.   Inner-Iter.     Column Row Layer    Maximum-Head-Change  Column Row Layer    Maximum-Flux-Residual          L2-NORM 
          0                 1           2             2    1     1       0.1644213562E-02       2    1    1         0.8548816721E-01      0.1473569211E+00
          0                 2           2             2    1     1      -0.1599372903E-03       2    1    1        -0.8548826421E-02      0.1471571330E-01
          0                 3           1             2    1     1       0.1089113571E-04       2    1    1         0.5984180149E-03      0.1028291725E-02

    ------------------------------------------------
       NWT REQUIRED            3 OUTER ITERATIONS 
       AND A TOTAL OF          5 INNER ITERATIONS.
    ------------------------------------------------

 NO OUTPUT CONTROL FOR STRESS PERIOD   37   TIME STEP   24
 
 SOLVING FOR HEAD 
                                                   Max.-Head-Change                         Max.-Flux-Residual
  Residual-Control   Outer-Iter.   Inner-Iter.     Column Row Layer    Maximum-Head-Change  Column Row Layer    Maximum-Flux-Residual          L2-NORM 
          0                 1           2             2    1     1       0.1639933440E-02       2    1    1         0.8526494778E-01      0.1460566001E+00
          0                 2           2             2    1     1      -0.1595209501E-03       2    1    1        -0.8526504398E-02      0.1458722712E-01
          0                 3           1             2    1     1       0.1086278462E-04       2    1    1         0.5968554751E-03      0.1019311765E-02

    ------------------------------------------------
       NWT REQUIRED            3 OUTER ITERATIONS 
       AND A TOTAL OF          5 INNER ITERATIONS.
    ------------------------------------------------

 NO OUTPUT CONTROL FOR STRESS PERIOD   37   TIME STEP   25
 
 SOLVING FOR HEAD 
                                                   Max.-Head-Change                         Max.-Flux-Residual
  Residual-Control   Outer-Iter.   Inner-Iter.     Column Row Layer    Maximum-Head-Change  Column Row Layer    Maximum-Flux-Residual          L2-NORM 
          0                 1           2             2    1     1       0.1635700176E-02       2    1    1         0.8504416965E-01      0.1448019760E+00
          0                 2           2             2    1     1      -0.1591091677E-03       2    1    1        -0.8504426511E-02      0.1446370695E-01
          0                 3           1             2    1     1       0.1083474357E-04       2    1    1         0.5953100187E-03      0.1011205256E-02

    ------------------------------------------------
       NWT REQUIRED            3 OUTER ITERATIONS 
       AND A TOTAL OF          5 INNER ITERATIONS.
    ------------------------------------------------

 NO OUTPUT CONTROL FOR STRESS PERIOD   37   TIME STEP   26
 
 SOLVING FOR HEAD 
                                                   Max.-Head-Change                         Max.-Flux-Residual
  Residual-Control   Outer-Iter.   Inner-Iter.     Column Row Layer    Maximum-Head-Change  Column Row Layer    Maximum-Flux-Residual          L2-NORM 
          0                 1           2             2    1     1       0.1631469458E-02       2    1    1         0.8482353683E-01      0.1435952606E+00
          0                 2           2             2    1     1      -0.1586976332E-03       2    1    1        -0.8482363146E-02      0.1434415800E-01
          0                 3           1             2    1     1       0.1080672004E-04       2    1    1         0.5937655991E-03      0.1002567485E-02

    ------------------------------------------------
       NWT REQUIRED            3 OUTER ITERATIONS 
       AND A TOTAL OF          5 INNER ITERATIONS.
    ------------------------------------------------

 NO OUTPUT CONTROL FOR STRESS PERIOD   37   TIME STEP   27
 
 SOLVING FOR HEAD 
                                                   Max.-Head-Change                         Max.-Flux-Residual
  Residual-Control   Outer-Iter.   Inner-Iter.     Column Row Layer    Maximum-Head-Change  Column Row Layer    Maximum-Flux-Residual          L2-NORM 
          0                 1           2             2    1     1       0.1627263177E-02       2    1    1         0.8460417810E-01      0.1424280581E+00
          0                 2           2             2    1     1      -0.1582884759E-03       2    1    1        -0.8460427221E-02      0.1422865211E-01
          0                 3           1             2    1     1       0.1077885791E-04       2    1    1         0.5922300745E-03      0.9949091604E-03

    ------------------------------------------------
       NWT REQUIRED            3 OUTER ITERATIONS 
       AND A TOTAL OF          5 INNER ITERATIONS.
    ------------------------------------------------

 NO OUTPUT CONTROL FOR STRESS PERIOD   37   TIME STEP   28
 
 SOLVING FOR HEAD 
                                                   Max.-Head-Change                         Max.-Flux-Residual
  Residual-Control   Outer-Iter.   Inner-Iter.     Column Row Layer    Maximum-Head-Change  Column Row Layer    Maximum-Flux-Residual          L2-NORM 
          0                 1           2             2    1     1       0.1623081100E-02       2    1    1         0.8438608644E-01      0.1412995201E+00
          0                 2           2             2    1     1      -0.1578816731E-03       2    1    1        -0.8438618007E-02      0.1411702799E-01
          0                 3           1             2    1     1       0.1075115649E-04       2    1    1         0.5907034374E-03      0.9870969482E-03

    ------------------------------------------------
       NWT REQUIRED            3 OUTER ITERATIONS 
       AND A TOTAL OF          5 INNER ITERATIONS.
    ------------------------------------------------

 NO OUTPUT CONTROL FOR STRESS PERIOD   37   TIME STEP   29
 
 SOLVING FOR HEAD 
                                                   Max.-Head-Change                         Max.-Flux-Residual
  Residual-Control   Outer-Iter.   Inner-Iter.     Column Row Layer    Maximum-Head-Change  Column Row Layer    Maximum-Flux-Residual          L2-NORM 
          0                 1           2             2    1     1       0.1618922993E-02       2    1    1         0.8416924967E-01      0.1402130123E+00
          0                 2           2             2    1     1      -0.1574772016E-03       2    1    1        -0.8416934245E-02      0.1400924154E-01
          0                 3           1             2    1     1       0.1072361340E-04       2    1    1         0.5891855790E-03      0.9795338606E-03

    ------------------------------------------------
       NWT REQUIRED            3 OUTER ITERATIONS 
       AND A TOTAL OF          5 INNER ITERATIONS.
    ------------------------------------------------

 NO OUTPUT CONTROL FOR STRESS PERIOD   37   TIME STEP   30



 STREAM LISTING     PERIOD     37   STEP       30

 LAYER ROW COL. STREAM  RCH.  FLOW INTO     FLOW TO   FLOW OUT OF   OVRLND.     DIRECT     STREAM       STREAM     STREAM     STREAM   STREAMBED  STREAMBED
                SEG.NO.  NO.  STRM. RCH.    AQUIFER    STRM. RCH.    RUNOFF     PRECIP       ET          HEAD       DEPTH      WIDTH   CONDCTNC.   GRADIENT

   1    1    1     1     1    1.7249E+01  2.0269E-01   1.7047E+01  0.000E+00  0.000E+00  0.000E+00  1.09410E+03  1.052E+00  1.112E+01  5.002E-02  1.351E+00
   1    2    2     1     2    1.7047E+01  3.1257E-01   1.6734E+01  0.000E+00  0.000E+00  0.000E+00  1.08911E+03  1.047E+00  1.103E+01  7.723E-02  1.349E+00
   1    3    3     1     3    1.6734E+01  2.6529E-01   1.6469E+01  0.000E+00  0.000E+00  0.000E+00  1.08346E+03  1.042E+00  1.094E+01  6.563E-02  1.347E+00
   1    3    4     1     4    1.6469E+01  2.4324E-01   1.6226E+01  0.000E+00  0.000E+00  0.000E+00  1.07845E+03  1.038E+00  1.085E+01  6.024E-02  1.346E+00
   1    4    5     2     1    1.4226E+01  3.0073E-01   1.3925E+01  0.000E+00  0.000E+00  0.000E+00  1.07279E+03  8.555E-01  1.200E+01  7.800E-02  1.285E+00
   1    5    6     2     2    1.3925E+01  2.3075E-01   1.3694E+01  0.000E+00  0.000E+00  0.000E+00  1.06736E+03  8.458E-01  1.200E+01  6.000E-02  1.282E+00
   1    6    6     2     3    1.3694E+01  2.3024E-01   1.3464E+01  0.000E+00  0.000E+00  0.000E+00  1.06263E+03  8.373E-01  1.200E+01  6.000E-02  1.279E+00
   1    7    6     2     4    1.3464E+01  2.2972E-01   1.3234E+01  0.000E+00  0.000E+00  0.000E+00  1.05790E+03  8.287E-01  1.200E+01  6.000E-02  1.276E+00
   1    8    6     2     5    1.3234E+01  2.2921E-01   1.3005E+01  0.000E+00  0.000E+00  0.000E+00  1.05318E+03  8.202E-01  1.200E+01  6.000E-02  1.273E+00
   1    3    5     3     1    2.0000E+00  2.8252E-01   1.7175E+00  0.000E+00  0.000E+00  0.000E+00  1.07555E+03  1.909E+00  9.636E+00  7.227E-02  1.955E+00
   1    3    6     3     2    1.7175E+00  2.4905E-01   1.4684E+00  0.000E+00  0.000E+00  0.000E+00  1.07264E+03  1.727E+00  8.909E+00  6.682E-02  1.864E+00
   1    3    7     3     3    1.4684E+00  1.9718E-01   1.2712E+00  0.000E+00  0.000E+00  0.000E+00  1.06987E+03  1.555E+00  8.218E+00  5.547E-02  1.777E+00
   1    4    8     3     4    1.2712E+00  2.2567E-01   1.0456E+00  0.000E+00  0.000E+00  0.000E+00  1.06682E+03  1.364E+00  7.455E+00  6.709E-02  1.682E+00
   1    5    8     3     5    1.0456E+00  1.5790E-01   8.8768E-01  0.000E+00  0.000E+00  0.000E+00  1.06362E+03  1.164E+00  6.655E+00  4.991E-02  1.582E+00
   1    6    8     3     6    8.8768E-01  5.5980E-02   8.3170E-01  0.000E+00  0.000E+00  0.000E+00  1.06158E+03  1.036E+00  6.145E+00  1.844E-02  1.518E+00
   1    5   10     4     1    1.0000E+01  9.0919E-02   9.9091E+00  0.000E+00  0.000E+00  0.000E+00  1.07836E+03  6.368E-01  1.000E+01  2.500E-02  1.212E+00
   1    5    9     4     2    9.9091E+00  1.8158E-01   9.7275E+00  0.000E+00  0.000E+00  0.000E+00  1.07154E+03  6.315E-01  1.000E+01  5.000E-02  1.211E+00
   1    6    8     4     3    9.7275E+00  1.2689E-01   9.6006E+00  0.000E+00  0.000E+00  0.000E+00  1.06381E+03  6.256E-01  1.000E+01  3.500E-02  1.209E+00
   1    6    8     5     1    1.0432E+01  2.2686E-01   1.0205E+01  0.000E+00  0.000E+00  0.000E+00  1.05868E+03  6.790E-01  1.542E+01  6.166E-02  1.226E+00
   1    7    7     5     2    1.0205E+01  2.7894E-01   9.9265E+00  0.000E+00  0.000E+00  0.000E+00  1.05417E+03  6.732E-01  1.519E+01  7.594E-02  1.224E+00
   1    8    7     5     3    9.9265E+00  1.9221E-01   9.7343E+00  0.000E+00  0.000E+00  0.000E+00  1.04992E+03  6.676E-01  1.497E+01  5.241E-02  1.223E+00
   1    8    6     5     4    9.7343E+00  1.3577E-01   9.5985E+00  0.000E+00  0.000E+00  0.000E+00  1.04691E+03  6.637E-01  1.482E+01  3.706E-02  1.221E+00
   1    9    6     6     1    2.2604E+01  2.4874E-01   2.2355E+01  0.000E+00  0.000E+00  0.000E+00  1.04387E+03  1.146E+00  1.200E+01  6.000E-02  1.382E+00
   1   10    7     6     2    2.2355E+01  2.4828E-01   2.2107E+01  0.000E+00  0.000E+00  0.000E+00  1.03932E+03  1.138E+00  1.200E+01  6.000E-02  1.379E+00
   1   11    7     6     3    2.2107E+01  2.4782E-01   2.1859E+01  0.000E+00  0.000E+00  0.000E+00  1.03477E+03  1.130E+00  1.200E+01  6.000E-02  1.377E+00
   1   12    7     6     4    2.1859E+01  2.4736E-01   2.1611E+01  0.000E+00  0.000E+00  0.000E+00  1.03021E+03  1.123E+00  1.200E+01  6.000E-02  1.374E+00
   1   13    7     6     5    2.1611E+01 -3.6122E-02   2.1647E+01  0.000E+00  0.000E+00  0.000E+00  1.02703E+03  1.119E+00  1.200E+01  2.400E-01 -5.017E-02
   1   14    9     7     1    1.5000E+02  1.3321E+00   1.4867E+02  0.000E+00  0.000E+00  0.000E+00  1.03987E+03  2.288E+00  5.529E+01  5.593E-01  7.939E-01
   1   13    8     7     2    1.4867E+02  1.8040E+00   1.4686E+02  0.000E+00  0.000E+00  0.000E+00  1.03478E+03  2.279E+00  5.526E+01  6.148E-01  9.781E-01
   1   13    7     7     3    1.4686E+02  1.4024E+00   1.4546E+02  0.000E+00  0.000E+00  0.000E+00  1.02969E+03  2.271E+00  5.522E+01  5.585E-01  8.370E-01
   1   13    6     8     1    1.6711E+02  8.3228E-01   1.6628E+02  0.000E+00  0.000E+00  0.000E+00  1.02481E+03  2.931E+00  4.249E+01  4.330E-01  6.407E-01
   1   13    5     8     2    1.6628E+02  9.1930E-02   1.6618E+02  0.000E+00  0.000E+00  0.000E+00  1.01855E+03  2.927E+00  4.245E+01  4.326E-01  7.084E-02
   1   13    4     8     3    1.6618E+02 -2.7217E+00   1.6891E+02  0.000E+00  0.000E+00  0.000E+00  1.01231E+03  2.936E+00  4.257E+01  4.338E+00 -2.091E-01
   1   13    3     8     4    1.6891E+02 -3.7793E+00   1.7269E+02  0.000E+00  0.000E+00  0.000E+00  1.00608E+03  2.957E+00  4.288E+01  4.370E+00 -2.883E-01
   1   13    2     8     5    1.7269E+02 -2.6101E+00   1.7530E+02  0.000E+00  0.000E+00  0.000E+00  9.99853E+02  2.978E+00  4.318E+01  4.400E+00 -1.977E-01
   1   13    1     8     6    1.7530E+02 -1.9974E+00   1.7729E+02  0.000E+00  0.000E+00  0.000E+00  9.94868E+02  2.993E+00  4.339E+01  2.653E+00 -2.509E-01
   1    8    6     9     1    0.0000E+00  0.0000E+00   0.0000E+00  0.000E+00  0.000E+00  0.000E+00  1.07875E+03  0.000E+00  4.000E+00  0.000E+00  1.000E+00
   1    8    5     9     2    0.0000E+00  0.0000E+00   0.0000E+00  0.000E+00  0.000E+00  0.000E+00  1.07825E+03  0.000E+00  4.000E+00  0.000E+00  1.000E+00





UNSATURATED ZONE PACKAGE VOLUMETRIC BUDGET FOR  TIME STEP    30 STRESS PERIOD   37
  ------------------------------------------------------------------------------



     CUMULATIVE VOLUMES      L**3       RATES FOR THIS TIME STEP      L**3/T
     ------------------                 ------------------------

           IN:                                      IN:
           ---                                      ---
        INFILTRATION =   418224127.7522          INFILTRATION =           4.4075

          OUT:                                     OUT:
          ----                                     ----
              UZF ET =   305068857.3790                UZF ET =           0.7250
        UZF RECHARGE =     1282289.7950          UZF RECHARGE =       0.0000E+00

            IN - OUT =   111872980.5782              IN - OUT =           3.6825

          STORAGE:                                 STORAGE:
          --------                                 --------
      STORAGE CHANGE =   111874142.1432        STORAGE CHANGE =           3.6825

 PERCENT DISCREPANCY IS DIFFERENCE BETWEEN IN-OUT MINUS CHANGE IN STORAGE
 DIVIDED BY THE AVERAGE OF IN AND OUT TIMES 100

 PERCENT DISCREPANCY =          -0.00     PERCENT DISCREPANCY =           0.00






1
  VOLUMETRIC BUDGET FOR ENTIRE MODEL AT END OF TIME STEP   30, STRESS PERIOD  37
  ------------------------------------------------------------------------------

     CUMULATIVE VOLUMES      L**3       RATES FOR THIS TIME STEP      L**3/T
     ------------------                 ------------------------

           IN:                                      IN:
           ---                                      ---
               AG WELLS  =           0.0000                 AG WELLS  =           0.0000
        DIVERSION SEGMEN =      848802.5000          DIVERSION SEGMEN =           0.0000
    TS         GW IRRIGA =           0.0000      TS         GW IRRIGA =           0.0000
    TION         SW IRRI =           0.0000      TION         SW IRRI =           0.0000
    GATION      SYSTEM L =           0.0000      GATION      SYSTEM L =           0.0000
    OSSES GW      SYSTEM =           0.1856      OSSES GW      SYSTEM =           0.0000

                TOTAL IN =      848802.6875                  TOTAL IN =           0.0000

          OUT:                                     OUT:
          ----                                     ----
               AG WELLS  =           0.0000                 AG WELLS  =           0.0000
        DIVERSION SEGMEN =           0.0000          DIVERSION SEGMEN =           0.0000
    TS         GW IRRIGA =           0.0000      TS         GW IRRIGA =           0.0000
    TION         SW IRRI =      848819.6875      TION         SW IRRI =           0.0000
    GATION      SYSTEM L =           0.0000      GATION      SYSTEM L =           0.0000
    OSSES GW      SYSTEM =           0.0000      OSSES GW      SYSTEM =           0.0000

               TOTAL OUT =      848819.6875                 TOTAL OUT =           0.0000

                IN - OUT =         -17.0000                  IN - OUT =           0.0000

     PERCENT DISCREPANCY =          -0.00         PERCENT DISCREPANCY =           0.00



1
  VOLUMETRIC BUDGET FOR ENTIRE MODEL AT END OF TIME STEP   30, STRESS PERIOD  37
  ------------------------------------------------------------------------------

     CUMULATIVE VOLUMES      L**3       RATES FOR THIS TIME STEP      L**3/T
     ------------------                 ------------------------

           IN:                                      IN:
           ---                                      ---
             STORAGE     =    48328068.0000               STORAGE     =           0.4774
       CONSTANT HEAD     =           0.0000         CONSTANT HEAD     =           0.0000
     HEAD DEP BOUNDS     =    27067868.0000       HEAD DEP BOUNDS     =           0.2855
      STREAM LEAKAGE     =  1131099776.0000        STREAM LEAKAGE     =          11.1008
        UZF RECHARGE     =     1282289.6250          UZF RECHARGE     =           0.0000
               GW ET     =           0.0000                 GW ET     =           0.0000
     SURFACE LEAKAGE     =           0.0000       SURFACE LEAKAGE     =           0.0000
           AG WELLS      =           0.0000             AG WELLS      =           0.0000

                TOTAL IN =  1207778048.0000                  TOTAL IN =          11.8637

          OUT:                                     OUT:
          ----                                     ----
             STORAGE     =   144131952.0000               STORAGE     =           0.4295
       CONSTANT HEAD     =           0.0000         CONSTANT HEAD     =           0.0000
     HEAD DEP BOUNDS     =    27712642.0000       HEAD DEP BOUNDS     =           0.2896
      STREAM LEAKAGE     =  1019202560.0000        STREAM LEAKAGE     =          11.1447
        UZF RECHARGE     =           0.0000          UZF RECHARGE     =           0.0000
               GW ET     =    16750928.0000                 GW ET     =           0.0000
     SURFACE LEAKAGE     =           0.0000       SURFACE LEAKAGE     =           0.0000
           AG WELLS      =           0.0000             AG WELLS      =           0.0000

               TOTAL OUT =  1207798144.0000                 TOTAL OUT =          11.8637

                IN - OUT =      -20096.0000                  IN - OUT =       1.8120E-05

     PERCENT DISCREPANCY =          -0.00         PERCENT DISCREPANCY =           0.00






         TIME SUMMARY AT END OF TIME STEP   30 IN STRESS PERIOD   37
                    SECONDS     MINUTES      HOURS       DAYS        YEARS
                    -----------------------------------------------------------
   TIME STEP LENGTH  87667.      1461.1      24.352      1.0147     2.77799E-03
 STRESS PERIOD TIME 2.63000E+06  43833.      730.56      30.440     8.33397E-02
         TOTAL TIME 9.47660E+07 1.57943E+06  26324.      1096.8      3.0030    
1
1
                            STRESS PERIOD NO.   38, LENGTH =   2630000.    
                            -----------------------------------------------

                              NUMBER OF TIME STEPS =    30

                               MULTIPLIER FOR DELT =     1.000

                            INITIAL TIME STEP SIZE =   87666.66    

 REUSING NON-PARAMETER GHB CELLS FROM LAST STRESS PERIOD

      2 GHB CELLS

 REUSING STREAM SEGMENT DATA FROM LAST STRESS PERIOD



            AREAL INFILTRATION RATE
 READING ON UNIT   19 WITH FORMAT: (10F4.0)            

            1           2           3           4           5           6           7           8           9          10
 ........................................................................................................................
   1   1.2000E-09   0.000       0.000       0.000       0.000       0.000       0.000       0.000       0.000       0.000    
   2   2.1000E-09  2.0000E-09  8.0000E-10  8.5000E-09   0.000       0.000       0.000       0.000       0.000       0.000    
   3   5.0000E-10  1.1000E-09  8.8000E-09  5.5000E-09   0.000       0.000       0.000       0.000       0.000       0.000    
   4   8.5000E-09  1.1000E-09  1.1000E-09  1.1000E-09  2.0000E-09   0.000       0.000       0.000       0.000       0.000    
   5   8.5000E-09  1.1000E-09  1.1000E-09  1.1000E-09  1.1000E-09   0.000       0.000       0.000       0.000       0.000    
   6   8.5000E-09  5.2000E-09  2.1000E-09  1.1000E-09  1.5000E-09   0.000       0.000       0.000       0.000       0.000    
   7   8.5000E-09  5.2000E-09  2.1000E-09  1.2000E-09  2.0000E-09   0.000       0.000       0.000       0.000       0.000    
   8   5.0000E-10  5.2000E-09  2.1000E-09  1.2000E-09  5.0000E-09   0.000       0.000       0.000       0.000       0.000    
   9   5.0000E-10  5.2000E-09  2.1000E-09  1.2000E-09  5.0000E-09   0.000       0.000       0.000       0.000       0.000    
  10   5.0000E-10  5.2000E-09  2.1000E-09  1.2000E-09  5.8000E-09   0.000       0.000       0.000       0.000       0.000    
  11   1.0000E-10  1.1000E-09  1.1000E-09  1.2000E-09  5.0000E-09   0.000       0.000       0.000       0.000       0.000    
  12   1.1000E-09  1.1000E-09  1.1000E-09  1.1000E-09  2.0000E-09   0.000       0.000       0.000       0.000       0.000    
  13   1.1000E-09  2.2000E-09  2.2000E-09  2.1000E-09  1.0000E-09   0.000       0.000       0.000       0.000       0.000    
  14   2.0000E-10  5.5000E-09  5.5000E-09  5.2000E-09  1.0000E-09   0.000       0.000       0.000       0.000       0.000    
  15    0.000      8.8000E-09  8.8000E-09   0.000       0.000       0.000       0.000       0.000       0.000       0.000    

                  ET RATE =  5.000000E-10

 USING ET EXTINCTION DEPTH FROM PREVIOUS STRESS PERIOD. CURRENT PERIOD IS:      38

 USING EXTINCTION WATER CONTENT FROM PREVIOUS STRESS PERIOD. CURRENT PERIOD IS:      38

 USING AIR ENTRY PRESSURE FROM PREVIOUS STRESS PERIOD. CURRENT PERIOD IS:      38

 USING ROOT PRESSURE HEAD FROM PREVIOUS STRESS PERIOD. CURRENT PERIOD IS:      38

 USING ROOT ACTIVITY FROM PREVIOUS STRESS PERIOD. CURRENT PERIOD IS:      38

 PROCESSING AG STRESS PERIOD DATA

 READING AG STRESS PERIOD DATA

 READING IRRIGATION SEGMENT

 READING IRRIGATION WELL

 READING SUPPLEMENTAL WELL

 END PROCESSING AG STRESS PERIOD DATA OPTIONS
 
 SOLVING FOR HEAD 
                                                   Max.-Head-Change                         Max.-Flux-Residual
  Residual-Control   Outer-Iter.   Inner-Iter.     Column Row Layer    Maximum-Head-Change  Column Row Layer    Maximum-Flux-Residual          L2-NORM 
          0                 1           2             2    1     1       0.1614788630E-02       2    1    1         0.8395365581E-01      0.1391599625E+00
          0                 2           2             2    1     1      -0.1570750398E-03       2    1    1        -0.8395374796E-02      0.1390480789E-01
          0                 3           1             2    1     1       0.1069622770E-04       2    1    1         0.5876764185E-03      0.9722066693E-03

    ------------------------------------------------
       NWT REQUIRED            3 OUTER ITERATIONS 
       AND A TOTAL OF          5 INNER ITERATIONS.
    ------------------------------------------------

 NO OUTPUT CONTROL FOR STRESS PERIOD   38   TIME STEP    1
 
 SOLVING FOR HEAD 
                                                   Max.-Head-Change                         Max.-Flux-Residual
  Residual-Control   Outer-Iter.   Inner-Iter.     Column Row Layer    Maximum-Head-Change  Column Row Layer    Maximum-Flux-Residual          L2-NORM 
          0                 1           2             2    1     1       0.1610108404E-02       2    1    1         0.8373929299E-01      0.1662147745E+00
          0                 2           2             2    1     1      -0.1566197883E-03       2    1    1        -0.8373938985E-02      0.1653129872E-01
          0                 3           1             2    1     1       0.1066522563E-04       2    1    1         0.5861758896E-03      0.1148699949E-02

    ------------------------------------------------
       NWT REQUIRED            3 OUTER ITERATIONS 
       AND A TOTAL OF          5 INNER ITERATIONS.
    ------------------------------------------------

 NO OUTPUT CONTROL FOR STRESS PERIOD   38   TIME STEP    2
 
 SOLVING FOR HEAD 
                                                   Max.-Head-Change                         Max.-Flux-Residual
  Residual-Control   Outer-Iter.   Inner-Iter.     Column Row Layer    Maximum-Head-Change  Column Row Layer    Maximum-Flux-Residual          L2-NORM 
          0                 1           2             2    1     1       0.1604791378E-02       2    1    1         0.8349661869E-01      0.2096312535E+00
          0                 2           2             2    1     1      -0.1561025931E-03       2    1    1        -0.8349671949E-02      0.2075482154E-01
          0                 3           1             2    1     1       0.1063000652E-04       2    1    1         0.5844772056E-03      0.1433690710E-02

    ------------------------------------------------
       NWT REQUIRED            3 OUTER ITERATIONS 
       AND A TOTAL OF          5 INNER ITERATIONS.
    ------------------------------------------------

 NO OUTPUT CONTROL FOR STRESS PERIOD   38   TIME STEP    3
 
 SOLVING FOR HEAD 
                                                   Max.-Head-Change                         Max.-Flux-Residual
  Residual-Control   Outer-Iter.   Inner-Iter.     Column Row Layer    Maximum-Head-Change  Column Row Layer    Maximum-Flux-Residual          L2-NORM 
          0                 1           2             2    1     1       0.1599506683E-02       2    1    1         0.8322092546E-01      0.2036319846E+00
          0                 2           2             2    1     1      -0.1555885348E-03       2    1    1        -0.8322102541E-02      0.2018079080E-01
          0                 3           1             2    1     1       0.1059500041E-04       2    1    1         0.5825473232E-03      0.1399424197E-02

    ------------------------------------------------
       NWT REQUIRED            3 OUTER ITERATIONS 
       AND A TOTAL OF          5 INNER ITERATIONS.
    ------------------------------------------------

 NO OUTPUT CONTROL FOR STRESS PERIOD   38   TIME STEP    4
 
 SOLVING FOR HEAD 
                                                   Max.-Head-Change                         Max.-Flux-Residual
  Residual-Control   Outer-Iter.   Inner-Iter.     Column Row Layer    Maximum-Head-Change  Column Row Layer    Maximum-Flux-Residual          L2-NORM 
          0                 1           2             2    1     1       0.1594254192E-02       2    1    1         0.8294691887E-01      0.1982119092E+00
          0                 2           2             2    1     1      -0.1550776091E-03       2    1    1        -0.8294701779E-02      0.1965438787E-01
          0                 3           1             2    1     1       0.1056020897E-04       2    1    1         0.5806292860E-03      0.1360774939E-02

    ------------------------------------------------
       NWT REQUIRED            3 OUTER ITERATIONS 
       AND A TOTAL OF          5 INNER ITERATIONS.
    ------------------------------------------------

 NO OUTPUT CONTROL FOR STRESS PERIOD   38   TIME STEP    5
 
 SOLVING FOR HEAD 
                                                   Max.-Head-Change                         Max.-Flux-Residual
  Residual-Control   Outer-Iter.   Inner-Iter.     Column Row Layer    Maximum-Head-Change  Column Row Layer    Maximum-Flux-Residual          L2-NORM 
          0                 1           2             2    1     1       0.1589033484E-02       2    1    1         0.8267458207E-01      0.1933189799E+00
          0                 2           2             2    1     1      -0.1545697753E-03       2    1    1        -0.8267468008E-02      0.1918292775E-01
          0                 3           1             2    1     1       0.1052562722E-04       2    1    1         0.5787229218E-03      0.1328512530E-02

    ------------------------------------------------
       NWT REQUIRED            3 OUTER ITERATIONS 
       AND A TOTAL OF          5 INNER ITERATIONS.
    ------------------------------------------------

 NO OUTPUT CONTROL FOR STRESS PERIOD   38   TIME STEP    6
 
 SOLVING FOR HEAD 
                                                   Max.-Head-Change                         Max.-Flux-Residual
  Residual-Control   Outer-Iter.   Inner-Iter.     Column Row Layer    Maximum-Head-Change  Column Row Layer    Maximum-Flux-Residual          L2-NORM 
          0                 1           2             2    1     1       0.1583844347E-02       2    1    1         0.8240389320E-01      0.1888768488E+00
          0                 2           2             2    1     1      -0.1540650129E-03       2    1    1        -0.8240399069E-02      0.1877662150E-01
          0                 3           1             2    1     1       0.1049125468E-04       2    1    1         0.5768280949E-03      0.1331081352E-02

    ------------------------------------------------
       NWT REQUIRED            3 OUTER ITERATIONS 
       AND A TOTAL OF          5 INNER ITERATIONS.
    ------------------------------------------------

 NO OUTPUT CONTROL FOR STRESS PERIOD   38   TIME STEP    7
 
 SOLVING FOR HEAD 
                                                   Max.-Head-Change                         Max.-Flux-Residual
  Residual-Control   Outer-Iter.   Inner-Iter.     Column Row Layer    Maximum-Head-Change  Column Row Layer    Maximum-Flux-Residual          L2-NORM 
          0                 1           2             2    1     1       0.1578686468E-02       2    1    1         0.8213484120E-01      0.1848409201E+00
          0                 2           2             2    1     1      -0.1535632906E-03       2    1    1        -0.8213493767E-02      0.1835773863E-01
          0                 3           1             2    1     1       0.1045708971E-04       2    1    1         0.5749447422E-03      0.1267324961E-02

    ------------------------------------------------
       NWT REQUIRED            3 OUTER ITERATIONS 
       AND A TOTAL OF          5 INNER ITERATIONS.
    ------------------------------------------------

 NO OUTPUT CONTROL FOR STRESS PERIOD   38   TIME STEP    8
 
 SOLVING FOR HEAD 
                                                   Max.-Head-Change                         Max.-Flux-Residual
  Residual-Control   Outer-Iter.   Inner-Iter.     Column Row Layer    Maximum-Head-Change  Column Row Layer    Maximum-Flux-Residual          L2-NORM 
          0                 1           2             2    1     1       0.1573537555E-02       2    1    1         0.8186626716E-01      0.1811532669E+00
          0                 2           2             2    1     1      -0.1530624401E-03       2    1    1        -0.8186636285E-02      0.1800891495E-01
          0                 3           1             2    1     1       0.1042298273E-04       2    1    1         0.5730646766E-03      0.1250646141E-02

    ------------------------------------------------
       NWT REQUIRED            3 OUTER ITERATIONS 
       AND A TOTAL OF          5 INNER ITERATIONS.
    ------------------------------------------------

 NO OUTPUT CONTROL FOR STRESS PERIOD   38   TIME STEP    9
 
 SOLVING FOR HEAD 
                                                   Max.-Head-Change                         Max.-Flux-Residual
  Residual-Control   Outer-Iter.   Inner-Iter.     Column Row Layer    Maximum-Head-Change  Column Row Layer    Maximum-Flux-Residual          L2-NORM 
          0                 1           2             2    1     1       0.1568441329E-02       2    1    1         0.8160044350E-01      0.1777860552E+00
          0                 2           2             2    1     1      -0.1525667151E-03       2    1    1        -0.8160053841E-02      0.1768395087E-01
          0                 3           1             2    1     1       0.1038922626E-04       2    1    1         0.5712039116E-03      0.1229714458E-02

    ------------------------------------------------
       NWT REQUIRED            3 OUTER ITERATIONS 
       AND A TOTAL OF          5 INNER ITERATIONS.
    ------------------------------------------------

 NO OUTPUT CONTROL FOR STRESS PERIOD   38   TIME STEP   10
 
 SOLVING FOR HEAD 
                                                   Max.-Head-Change                         Max.-Flux-Residual
  Residual-Control   Outer-Iter.   Inner-Iter.     Column Row Layer    Maximum-Head-Change  Column Row Layer    Maximum-Flux-Residual          L2-NORM 
          0                 1           2             2    1     1       0.1563375481E-02       2    1    1         0.8133620889E-01      0.1746879479E+00
          0                 2           2             2    1     1      -0.1520739449E-03       2    1    1        -0.8133630285E-02      0.1738429074E-01
          0                 3           1             2    1     1       0.1035567025E-04       2    1    1         0.5693542729E-03      0.1209327438E-02

    ------------------------------------------------
       NWT REQUIRED            3 OUTER ITERATIONS 
       AND A TOTAL OF          5 INNER ITERATIONS.
    ------------------------------------------------

 NO OUTPUT CONTROL FOR STRESS PERIOD   38   TIME STEP   11
 
 SOLVING FOR HEAD 
                                                   Max.-Head-Change                         Max.-Flux-Residual
  Residual-Control   Outer-Iter.   Inner-Iter.     Column Row Layer    Maximum-Head-Change  Column Row Layer    Maximum-Flux-Residual          L2-NORM 
          0                 1           2             2    1     1       0.1558317800E-02       2    1    1         0.8107240646E-01      0.1718314174E+00
          0                 2           2             2    1     1      -0.1515819693E-03       2    1    1        -0.8107249971E-02      0.1710755493E-01
          0                 3           1             2    1     1       0.1032216867E-04       2    1    1         0.5675076384E-03      0.1190417792E-02

    ------------------------------------------------
       NWT REQUIRED            3 OUTER ITERATIONS 
       AND A TOTAL OF          5 INNER ITERATIONS.
    ------------------------------------------------

 NO OUTPUT CONTROL FOR STRESS PERIOD   38   TIME STEP   12
 
 SOLVING FOR HEAD 
                                                   Max.-Head-Change                         Max.-Flux-Residual
  Residual-Control   Outer-Iter.   Inner-Iter.     Column Row Layer    Maximum-Head-Change  Column Row Layer    Maximum-Flux-Residual          L2-NORM 
          0                 1           2             2    1     1       0.1553311923E-02       2    1    1         0.8081131326E-01      0.1691908740E+00
          0                 2           2             2    1     1      -0.1510950327E-03       2    1    1        -0.8081140559E-02      0.1685073786E-01
          0                 3           1             2    1     1       0.1028901027E-04       2    1    1         0.5656800014E-03      0.1173291554E-02

    ------------------------------------------------
       NWT REQUIRED            3 OUTER ITERATIONS 
       AND A TOTAL OF          5 INNER ITERATIONS.
    ------------------------------------------------

 NO OUTPUT CONTROL FOR STRESS PERIOD   38   TIME STEP   13
 
 SOLVING FOR HEAD 
                                                   Max.-Head-Change                         Max.-Flux-Residual
  Residual-Control   Outer-Iter.   Inner-Iter.     Column Row Layer    Maximum-Head-Change  Column Row Layer    Maximum-Flux-Residual          L2-NORM 
          0                 1           2             2    1     1       0.1548335622E-02       2    1    1         0.8055176315E-01      0.1667439390E+00
          0                 2           2             2    1     1      -0.1506109733E-03       2    1    1        -0.8055185475E-02      0.1661331307E-01
          0                 3           1             2    1     1       0.1025604784E-04       2    1    1         0.5638631511E-03      0.1157395433E-02

    ------------------------------------------------
       NWT REQUIRED            3 OUTER ITERATIONS 
       AND A TOTAL OF          5 INNER ITERATIONS.
    ------------------------------------------------

 NO OUTPUT CONTROL FOR STRESS PERIOD   38   TIME STEP   14
 
 SOLVING FOR HEAD 
                                                   Max.-Head-Change                         Max.-Flux-Residual
  Residual-Control   Outer-Iter.   Inner-Iter.     Column Row Layer    Maximum-Head-Change  Column Row Layer    Maximum-Flux-Residual          L2-NORM 
          0                 1           2             2    1     1       0.1543366520E-02       2    1    1         0.8029260344E-01      0.1644571242E+00
          0                 2           2             2    1     1      -0.1501276140E-03       2    1    1        -0.8029269428E-02      0.1639069638E-01
          0                 3           1             2    1     1       0.1022313250E-04       2    1    1         0.5620490203E-03      0.1142233584E-02

    ------------------------------------------------
       NWT REQUIRED            3 OUTER ITERATIONS 
       AND A TOTAL OF          5 INNER ITERATIONS.
    ------------------------------------------------

 NO OUTPUT CONTROL FOR STRESS PERIOD   38   TIME STEP   15
 
 SOLVING FOR HEAD 
                                                   Max.-Head-Change                         Max.-Flux-Residual
  Residual-Control   Outer-Iter.   Inner-Iter.     Column Row Layer    Maximum-Head-Change  Column Row Layer    Maximum-Flux-Residual          L2-NORM 
          0                 1           2             2    1     1       0.1538448475E-02       2    1    1         0.8003610314E-01      0.1623221233E+00
          0                 2           2             2    1     1      -0.1496492208E-03       2    1    1        -0.8003619312E-02      0.1618316565E-01
          0                 3           1             2    1     1       0.1019055585E-04       2    1    1         0.5602535067E-03      0.1128261810E-02

    ------------------------------------------------
       NWT REQUIRED            3 OUTER ITERATIONS 
       AND A TOTAL OF          5 INNER ITERATIONS.
    ------------------------------------------------

 NO OUTPUT CONTROL FOR STRESS PERIOD   38   TIME STEP   16
 
 SOLVING FOR HEAD 
                                                   Max.-Head-Change                         Max.-Flux-Residual
  Residual-Control   Outer-Iter.   Inner-Iter.     Column Row Layer    Maximum-Head-Change  Column Row Layer    Maximum-Flux-Residual          L2-NORM 
          0                 1           2             2    1     1       0.1533537173E-02       2    1    1         0.7977996391E-01      0.1603213430E+00
          0                 2           2             2    1     1      -0.1491714842E-03       2    1    1        -0.7978005317E-02      0.1598779195E-01
          0                 3           1             2    1     1       0.1015802392E-04       2    1    1         0.5584605386E-03      0.1115299385E-02

    ------------------------------------------------
       NWT REQUIRED            3 OUTER ITERATIONS 
       AND A TOTAL OF          5 INNER ITERATIONS.
    ------------------------------------------------

 NO OUTPUT CONTROL FOR STRESS PERIOD   38   TIME STEP   17
 
 SOLVING FOR HEAD 
                                                   Max.-Head-Change                         Max.-Flux-Residual
  Residual-Control   Outer-Iter.   Inner-Iter.     Column Row Layer    Maximum-Head-Change  Column Row Layer    Maximum-Flux-Residual          L2-NORM 
          0                 1           2             2    1     1       0.1528654316E-02       2    1    1         0.7952531736E-01      0.1584462996E+00
          0                 2           2             2    1     1      -0.1486965141E-03       2    1    1        -0.7952540584E-02      0.1580460007E-01
          0                 3           1             2    1     1       0.1012568015E-04       2    1    1         0.5566779984E-03      0.1102437677E-02

    ------------------------------------------------
       NWT REQUIRED            3 OUTER ITERATIONS 
       AND A TOTAL OF          5 INNER ITERATIONS.
    ------------------------------------------------

 NO OUTPUT CONTROL FOR STRESS PERIOD   38   TIME STEP   18
 
 SOLVING FOR HEAD 
                                                   Max.-Head-Change                         Max.-Flux-Residual
  Residual-Control   Outer-Iter.   Inner-Iter.     Column Row Layer    Maximum-Head-Change  Column Row Layer    Maximum-Flux-Residual          L2-NORM 
          0                 1           2             2    1     1       0.1523821701E-02       2    1    1         0.7927328892E-01      0.1566635536E+00
          0                 2           2             2    1     1      -0.1482264314E-03       2    1    1        -0.7927337663E-02      0.1563034402E-01
          0                 3           1             2    1     1       0.1009366962E-04       2    1    1         0.5549138085E-03      0.1090759398E-02

    ------------------------------------------------
       NWT REQUIRED            3 OUTER ITERATIONS 
       AND A TOTAL OF          5 INNER ITERATIONS.
    ------------------------------------------------

 NO OUTPUT CONTROL FOR STRESS PERIOD   38   TIME STEP   19
 
 SOLVING FOR HEAD 
                                                   Max.-Head-Change                         Max.-Flux-Residual
  Residual-Control   Outer-Iter.   Inner-Iter.     Column Row Layer    Maximum-Head-Change  Column Row Layer    Maximum-Flux-Residual          L2-NORM 
          0                 1           2             2    1     1       0.1518995019E-02       2    1    1         0.7902157900E-01      0.1549780912E+00
          0                 2           2             2    1     1      -0.1477569263E-03       2    1    1        -0.7902166631E-02      0.1546511643E-01
          0                 3           1             2    1     1       0.1006169766E-04       2    1    1         0.5531518237E-03      0.1079389806E-02

    ------------------------------------------------
       NWT REQUIRED            3 OUTER ITERATIONS 
       AND A TOTAL OF          5 INNER ITERATIONS.
    ------------------------------------------------

 NO OUTPUT CONTROL FOR STRESS PERIOD   38   TIME STEP   20
 
 SOLVING FOR HEAD 
                                                   Max.-Head-Change                         Max.-Flux-Residual
  Residual-Control   Outer-Iter.   Inner-Iter.     Column Row Layer    Maximum-Head-Change  Column Row Layer    Maximum-Flux-Residual          L2-NORM 
          0                 1           2             2    1     1       0.1514218053E-02       2    1    1         0.7877246326E-01      0.1533823307E+00
          0                 2           2             2    1     1      -0.1472922563E-03       2    1    1        -0.7877254975E-02      0.1530855437E-01
          0                 3           1             2    1     1       0.1003005539E-04       2    1    1         0.5514080030E-03      0.1068883736E-02

    ------------------------------------------------
       NWT REQUIRED            3 OUTER ITERATIONS 
       AND A TOTAL OF          5 INNER ITERATIONS.
    ------------------------------------------------

 NO OUTPUT CONTROL FOR STRESS PERIOD   38   TIME STEP   21
 
 SOLVING FOR HEAD 
                                                   Max.-Head-Change                         Max.-Flux-Residual
  Residual-Control   Outer-Iter.   Inner-Iter.     Column Row Layer    Maximum-Head-Change  Column Row Layer    Maximum-Flux-Residual          L2-NORM 
          0                 1           2             2    1     1       0.1509446627E-02       2    1    1         0.7852363857E-01      0.1518597696E+00
          0                 2           2             2    1     1      -0.1468281258E-03       2    1    1        -0.7852372436E-02      0.1515902668E-01
          0                 3           1             2    1     1       0.9998450046E-05       2    1    1         0.5496662286E-03      0.1058219759E-02

    ------------------------------------------------
       NWT REQUIRED            3 OUTER ITERATIONS 
       AND A TOTAL OF          5 INNER ITERATIONS.
    ------------------------------------------------

 NO OUTPUT CONTROL FOR STRESS PERIOD   38   TIME STEP   22
 
 SOLVING FOR HEAD 
                                                   Max.-Head-Change                         Max.-Flux-Residual
  Residual-Control   Outer-Iter.   Inner-Iter.     Column Row Layer    Maximum-Head-Change  Column Row Layer    Maximum-Flux-Residual          L2-NORM 
          0                 1           2             2    1     1       0.1504702407E-02       2    1    1         0.7827624449E-01      0.1504064458E+00
          0                 2           2             2    1     1      -0.1463666414E-03       2    1    1        -0.7827632972E-02      0.1501609885E-01
          0                 3           1             2    1     1       0.9967024332E-05       2    1    1         0.5479344620E-03      0.1048877685E-02

    ------------------------------------------------
       NWT REQUIRED            3 OUTER ITERATIONS 
       AND A TOTAL OF          5 INNER ITERATIONS.
    ------------------------------------------------

 NO OUTPUT CONTROL FOR STRESS PERIOD   38   TIME STEP   23
 
 SOLVING FOR HEAD 
                                                   Max.-Head-Change                         Max.-Flux-Residual
  Residual-Control   Outer-Iter.   Inner-Iter.     Column Row Layer    Maximum-Head-Change  Column Row Layer    Maximum-Flux-Residual          L2-NORM 
          0                 1           2             2    1     1       0.1499985138E-02       2    1    1         0.7803026095E-01      0.1490191805E+00
          0                 2           2             2    1     1      -0.1459077785E-03       2    1    1        -0.7803034538E-02      0.1487960815E-01
          0                 3           1             2    1     1       0.9935777544E-05       2    1    1         0.5462125595E-03      0.1039534041E-02

    ------------------------------------------------
       NWT REQUIRED            3 OUTER ITERATIONS 
       AND A TOTAL OF          5 INNER ITERATIONS.
    ------------------------------------------------

 NO OUTPUT CONTROL FOR STRESS PERIOD   38   TIME STEP   24
 
 SOLVING FOR HEAD 
                                                   Max.-Head-Change                         Max.-Flux-Residual
  Residual-Control   Outer-Iter.   Inner-Iter.     Column Row Layer    Maximum-Head-Change  Column Row Layer    Maximum-Flux-Residual          L2-NORM 
          0                 1           2             2    1     1       0.1495294704E-02       2    1    1         0.7778567488E-01      0.1476803089E+00
          0                 2           2             2    1     1      -0.1454515264E-03       2    1    1        -0.7778575873E-02      0.1474795298E-01
          0                 3           1             2    1     1       0.9904708733E-05       2    1    1         0.5445004563E-03      0.1030632108E-02

    ------------------------------------------------
       NWT REQUIRED            3 OUTER ITERATIONS 
       AND A TOTAL OF          5 INNER ITERATIONS.
    ------------------------------------------------

 NO OUTPUT CONTROL FOR STRESS PERIOD   38   TIME STEP   25
 
 SOLVING FOR HEAD 
                                                   Max.-Head-Change                         Max.-Flux-Residual
  Residual-Control   Outer-Iter.   Inner-Iter.     Column Row Layer    Maximum-Head-Change  Column Row Layer    Maximum-Flux-Residual          L2-NORM 
          0                 1           2             2    1     1       0.1490652728E-02       2    1    1         0.7754362373E-01      0.1464031515E+00
          0                 2           2             2    1     1      -0.1449999875E-03       2    1    1        -0.7754370668E-02      0.1462185250E-01
          0                 3           1             2    1     1       0.9873960615E-05       2    1    1         0.5428061076E-03      0.1022013611E-02

    ------------------------------------------------
       NWT REQUIRED            3 OUTER ITERATIONS 
       AND A TOTAL OF          5 INNER ITERATIONS.
    ------------------------------------------------

 NO OUTPUT CONTROL FOR STRESS PERIOD   38   TIME STEP   26
 
 SOLVING FOR HEAD 
                                                   Max.-Head-Change                         Max.-Flux-Residual
  Residual-Control   Outer-Iter.   Inner-Iter.     Column Row Layer    Maximum-Head-Change  Column Row Layer    Maximum-Flux-Residual          L2-NORM 
          0                 1           2             2    1     1       0.1486015012E-02       2    1    1         0.7730179790E-01      0.1451685452E+00
          0                 2           2             2    1     1      -0.1445488634E-03       2    1    1        -0.7730188036E-02      0.1449998849E-01
          0                 3           1             2    1     1       0.9843240661E-05       2    1    1         0.5411133129E-03      0.1013291544E-02

    ------------------------------------------------
       NWT REQUIRED            3 OUTER ITERATIONS 
       AND A TOTAL OF          5 INNER ITERATIONS.
    ------------------------------------------------

 NO OUTPUT CONTROL FOR STRESS PERIOD   38   TIME STEP   27
 
 SOLVING FOR HEAD 
                                                   Max.-Head-Change                         Max.-Flux-Residual
  Residual-Control   Outer-Iter.   Inner-Iter.     Column Row Layer    Maximum-Head-Change  Column Row Layer    Maximum-Flux-Residual          L2-NORM 
          0                 1           2             2    1     1       0.1481403302E-02       2    1    1         0.7706133656E-01      0.1439815661E+00
          0                 2           2             2    1     1      -0.1441002688E-03       2    1    1        -0.7706141843E-02      0.1438290512E-01
          0                 3           1             2    1     1       0.9812693242E-05       2    1    1         0.5394300889E-03      0.1005585371E-02

    ------------------------------------------------
       NWT REQUIRED            3 OUTER ITERATIONS 
       AND A TOTAL OF          5 INNER ITERATIONS.
    ------------------------------------------------

 NO OUTPUT CONTROL FOR STRESS PERIOD   38   TIME STEP   28
 
 SOLVING FOR HEAD 
                                                   Max.-Head-Change                         Max.-Flux-Residual
  Residual-Control   Outer-Iter.   Inner-Iter.     Column Row Layer    Maximum-Head-Change  Column Row Layer    Maximum-Flux-Residual          L2-NORM 
          0                 1           2             2    1     1       0.1476817431E-02       2    1    1         0.7682222357E-01      0.1428297090E+00
          0                 2           2             2    1     1      -0.1436541877E-03       2    1    1        -0.7682230473E-02      0.1426869964E-01
          0                 3           1             2    1     1       0.9782316701E-05       2    1    1         0.5377562927E-03      0.9975570261E-03

    ------------------------------------------------
       NWT REQUIRED            3 OUTER ITERATIONS 
       AND A TOTAL OF          5 INNER ITERATIONS.
    ------------------------------------------------

 NO OUTPUT CONTROL FOR STRESS PERIOD   38   TIME STEP   29
 
 SOLVING FOR HEAD 
                                                   Max.-Head-Change                         Max.-Flux-Residual
  Residual-Control   Outer-Iter.   Inner-Iter.     Column Row Layer    Maximum-Head-Change  Column Row Layer    Maximum-Flux-Residual          L2-NORM 
          0                 1           2             2    1     1       0.1472257168E-02       2    1    1         0.7658445035E-01      0.1417185663E+00
          0                 2           2             2    1     1      -0.1432105976E-03       2    1    1        -0.7658453108E-02      0.1415886087E-01
          0                 3           1             2    1     1       0.9752109618E-05       2    1    1         0.5360918665E-03      0.9902085487E-03

    ------------------------------------------------
       NWT REQUIRED            3 OUTER ITERATIONS 
       AND A TOTAL OF          5 INNER ITERATIONS.
    ------------------------------------------------

 NO OUTPUT CONTROL FOR STRESS PERIOD   38   TIME STEP   30



 STREAM LISTING     PERIOD     38   STEP       30

 LAYER ROW COL. STREAM  RCH.  FLOW INTO     FLOW TO   FLOW OUT OF   OVRLND.     DIRECT     STREAM       STREAM     STREAM     STREAM   STREAMBED  STREAMBED
                SEG.NO.  NO.  STRM. RCH.    AQUIFER    STRM. RCH.    RUNOFF     PRECIP       ET          HEAD       DEPTH      WIDTH   CONDCTNC.   GRADIENT

   1    1    1     1     1    1.4250E+01  1.8168E-01   1.4068E+01  0.000E+00  0.000E+00  0.000E+00  1.09404E+03  9.953E-01  1.011E+01  4.547E-02  1.332E+00
   1    2    2     1     2    1.4068E+01  2.7999E-01   1.3788E+01  0.000E+00  0.000E+00  0.000E+00  1.08905E+03  9.906E-01  1.002E+01  7.016E-02  1.330E+00
   1    3    3     1     3    1.3788E+01  2.3744E-01   1.3550E+01  0.000E+00  0.000E+00  0.000E+00  1.08340E+03  9.852E-01  9.930E+00  5.958E-02  1.328E+00
   1    3    4     1     4    1.3550E+01  2.1755E-01   1.3333E+01  0.000E+00  0.000E+00  0.000E+00  1.07839E+03  9.805E-01  9.847E+00  5.465E-02  1.327E+00
   1    4    5     2     1    1.1333E+01  2.9214E-01   1.1041E+01  0.000E+00  0.000E+00  0.000E+00  1.07268E+03  7.454E-01  1.200E+01  7.800E-02  1.248E+00
   1    5    6     2     2    1.1041E+01  2.2410E-01   1.0817E+01  0.000E+00  0.000E+00  0.000E+00  1.06724E+03  7.350E-01  1.200E+01  6.000E-02  1.245E+00
   1    6    6     2     3    1.0817E+01  2.2356E-01   1.0593E+01  0.000E+00  0.000E+00  0.000E+00  1.06252E+03  7.259E-01  1.200E+01  6.000E-02  1.242E+00
   1    7    6     2     4    1.0593E+01  2.2301E-01   1.0370E+01  0.000E+00  0.000E+00  0.000E+00  1.05779E+03  7.168E-01  1.200E+01  6.000E-02  1.239E+00
   1    8    6     2     5    1.0370E+01  2.2246E-01   1.0148E+01  0.000E+00  0.000E+00  0.000E+00  1.05307E+03  7.076E-01  1.200E+01  6.000E-02  1.236E+00
   1    3    5     3     1    2.0000E+00  2.8252E-01   1.7175E+00  0.000E+00  0.000E+00  0.000E+00  1.07555E+03  1.909E+00  9.636E+00  7.227E-02  1.955E+00
   1    3    6     3     2    1.7175E+00  2.4905E-01   1.4684E+00  0.000E+00  0.000E+00  0.000E+00  1.07264E+03  1.727E+00  8.909E+00  6.682E-02  1.864E+00
   1    3    7     3     3    1.4684E+00  1.9718E-01   1.2712E+00  0.000E+00  0.000E+00  0.000E+00  1.06987E+03  1.555E+00  8.218E+00  5.547E-02  1.777E+00
   1    4    8     3     4    1.2712E+00  2.2567E-01   1.0456E+00  0.000E+00  0.000E+00  0.000E+00  1.06682E+03  1.364E+00  7.455E+00  6.709E-02  1.682E+00
   1    5    8     3     5    1.0456E+00  1.5790E-01   8.8768E-01  0.000E+00  0.000E+00  0.000E+00  1.06362E+03  1.164E+00  6.655E+00  4.991E-02  1.582E+00
   1    6    8     3     6    8.8768E-01  5.5980E-02   8.3170E-01  0.000E+00  0.000E+00  0.000E+00  1.06158E+03  1.036E+00  6.145E+00  1.844E-02  1.518E+00
   1    5   10     4     1    1.0000E+01  9.0919E-02   9.9091E+00  0.000E+00  0.000E+00  0.000E+00  1.07836E+03  6.368E-01  1.000E+01  2.500E-02  1.212E+00
   1    5    9     4     2    9.9091E+00  1.8158E-01   9.7275E+00  0.000E+00  0.000E+00  0.000E+00  1.07154E+03  6.315E-01  1.000E+01  5.000E-02  1.211E+00
   1    6    8     4     3    9.7275E+00  1.2689E-01   9.6006E+00  0.000E+00  0.000E+00  0.000E+00  1.06381E+03  6.256E-01  1.000E+01  3.500E-02  1.209E+00
   1    6    8     5     1    1.0432E+01  2.2686E-01   1.0205E+01  0.000E+00  0.000E+00  0.000E+00  1.05868E+03  6.790E-01  1.542E+01  6.166E-02  1.226E+00
   1    7    7     5     2    1.0205E+01  2.7894E-01   9.9265E+00  0.000E+00  0.000E+00  0.000E+00  1.05417E+03  6.732E-01  1.519E+01  7.594E-02  1.224E+00
   1    8    7     5     3    9.9265E+00  1.9221E-01   9.7343E+00  0.000E+00  0.000E+00  0.000E+00  1.04992E+03  6.676E-01  1.497E+01  5.241E-02  1.223E+00
   1    8    6     5     4    9.7343E+00  1.3577E-01   9.5985E+00  0.000E+00  0.000E+00  0.000E+00  1.04691E+03  6.637E-01  1.482E+01  3.706E-02  1.221E+00
   1    9    6     6     1    1.9746E+01  2.4336E-01   1.9503E+01  0.000E+00  0.000E+00  0.000E+00  1.04378E+03  1.056E+00  1.200E+01  6.000E-02  1.352E+00
   1   10    7     6     2    1.9503E+01  2.4289E-01   1.9260E+01  0.000E+00  0.000E+00  0.000E+00  1.03923E+03  1.048E+00  1.200E+01  6.000E-02  1.349E+00
   1   11    7     6     3    1.9260E+01  2.4241E-01   1.9018E+01  0.000E+00  0.000E+00  0.000E+00  1.03468E+03  1.040E+00  1.200E+01  6.000E-02  1.347E+00
   1   12    7     6     4    1.9018E+01  2.4194E-01   1.8776E+01  0.000E+00  0.000E+00  0.000E+00  1.03012E+03  1.032E+00  1.200E+01  6.000E-02  1.344E+00
   1   13    7     6     5    1.8776E+01 -5.4127E-02   1.8830E+01  0.000E+00  0.000E+00  0.000E+00  1.02694E+03  1.029E+00  1.200E+01  2.400E-01 -7.518E-02
   1   14    9     7     1    1.5000E+02  1.3320E+00   1.4867E+02  0.000E+00  0.000E+00  0.000E+00  1.03987E+03  2.288E+00  5.529E+01  5.593E-01  7.939E-01
   1   13    8     7     2    1.4867E+02  1.8063E+00   1.4686E+02  0.000E+00  0.000E+00  0.000E+00  1.03478E+03  2.279E+00  5.526E+01  6.148E-01  9.794E-01
   1   13    7     7     3    1.4686E+02  1.4109E+00   1.4545E+02  0.000E+00  0.000E+00  0.000E+00  1.02969E+03  2.271E+00  5.522E+01  5.585E-01  8.421E-01
   1   13    6     8     1    1.6428E+02  8.2575E-01   1.6345E+02  0.000E+00  0.000E+00  0.000E+00  1.02479E+03  2.912E+00  4.222E+01  4.302E-01  6.397E-01
   1   13    5     8     2    1.6345E+02  8.9176E-02   1.6337E+02  0.000E+00  0.000E+00  0.000E+00  1.01853E+03  2.909E+00  4.218E+01  4.298E-01  6.916E-02
   1   13    4     8     3    1.6337E+02 -2.7269E+00   1.6609E+02  0.000E+00  0.000E+00  0.000E+00  1.01229E+03  2.918E+00  4.230E+01  4.311E+00 -2.109E-01
   1   13    3     8     4    1.6609E+02 -3.7812E+00   1.6987E+02  0.000E+00  0.000E+00  0.000E+00  1.00606E+03  2.939E+00  4.262E+01  4.343E+00 -2.902E-01
   1   13    2     8     5    1.6987E+02 -2.6127E+00   1.7249E+02  0.000E+00  0.000E+00  0.000E+00  9.99835E+02  2.960E+00  4.292E+01  4.374E+00 -1.991E-01
   1   13    1     8     6    1.7249E+02 -1.9972E+00   1.7448E+02  0.000E+00  0.000E+00  0.000E+00  9.94850E+02  2.975E+00  4.313E+01  2.637E+00 -2.524E-01
   1    8    6     9     1    0.0000E+00  0.0000E+00   0.0000E+00  0.000E+00  0.000E+00  0.000E+00  1.07875E+03  0.000E+00  4.000E+00  0.000E+00  1.000E+00
   1    8    5     9     2    0.0000E+00  0.0000E+00   0.0000E+00  0.000E+00  0.000E+00  0.000E+00  1.07825E+03  0.000E+00  4.000E+00  0.000E+00  1.000E+00





UNSATURATED ZONE PACKAGE VOLUMETRIC BUDGET FOR  TIME STEP    30 STRESS PERIOD   38
  ------------------------------------------------------------------------------



     CUMULATIVE VOLUMES      L**3       RATES FOR THIS TIME STEP      L**3/T
     ------------------                 ------------------------

           IN:                                      IN:
           ---                                      ---
        INFILTRATION =   429815852.3103          INFILTRATION =           4.4075

          OUT:                                     OUT:
          ----                                     ----
              UZF ET =   306975623.2455                UZF ET =           0.7250
        UZF RECHARGE =     1282289.7950          UZF RECHARGE =       0.0000E+00

            IN - OUT =   121557939.2698              IN - OUT =           3.6825

          STORAGE:                                 STORAGE:
          --------                                 --------
      STORAGE CHANGE =   121559100.7670        STORAGE CHANGE =           3.6825

 PERCENT DISCREPANCY IS DIFFERENCE BETWEEN IN-OUT MINUS CHANGE IN STORAGE
 DIVIDED BY THE AVERAGE OF IN AND OUT TIMES 100

 PERCENT DISCREPANCY =          -0.00     PERCENT DISCREPANCY =           0.00






1
  VOLUMETRIC BUDGET FOR ENTIRE MODEL AT END OF TIME STEP   30, STRESS PERIOD  38
  ------------------------------------------------------------------------------

     CUMULATIVE VOLUMES      L**3       RATES FOR THIS TIME STEP      L**3/T
     ------------------                 ------------------------

           IN:                                      IN:
           ---                                      ---
               AG WELLS  =           0.0000                 AG WELLS  =           0.0000
        DIVERSION SEGMEN =      848802.5000          DIVERSION SEGMEN =           0.0000
    TS         GW IRRIGA =           0.0000      TS         GW IRRIGA =           0.0000
    TION         SW IRRI =           0.0000      TION         SW IRRI =           0.0000
    GATION      SYSTEM L =           0.0000      GATION      SYSTEM L =           0.0000
    OSSES GW      SYSTEM =           0.1856      OSSES GW      SYSTEM =           0.0000

                TOTAL IN =      848802.6875                  TOTAL IN =           0.0000

          OUT:                                     OUT:
          ----                                     ----
               AG WELLS  =           0.0000                 AG WELLS  =           0.0000
        DIVERSION SEGMEN =           0.0000          DIVERSION SEGMEN =           0.0000
    TS         GW IRRIGA =           0.0000      TS         GW IRRIGA =           0.0000
    TION         SW IRRI =      848819.6875      TION         SW IRRI =           0.0000
    GATION      SYSTEM L =           0.0000      GATION      SYSTEM L =           0.0000
    OSSES GW      SYSTEM =           0.0000      OSSES GW      SYSTEM =           0.0000

               TOTAL OUT =      848819.6875                 TOTAL OUT =           0.0000

                IN - OUT =         -17.0000                  IN - OUT =           0.0000

     PERCENT DISCREPANCY =          -0.00         PERCENT DISCREPANCY =           0.00



1
  VOLUMETRIC BUDGET FOR ENTIRE MODEL AT END OF TIME STEP   30, STRESS PERIOD  38
  ------------------------------------------------------------------------------

     CUMULATIVE VOLUMES      L**3       RATES FOR THIS TIME STEP      L**3/T
     ------------------                 ------------------------

           IN:                                      IN:
           ---                                      ---
             STORAGE     =    50059980.0000               STORAGE     =           0.5596
       CONSTANT HEAD     =           0.0000         CONSTANT HEAD     =           0.0000
     HEAD DEP BOUNDS     =    27818768.0000       HEAD DEP BOUNDS     =           0.2855
      STREAM LEAKAGE     =  1159864064.0000        STREAM LEAKAGE     =          10.9382
        UZF RECHARGE     =     1282289.6250          UZF RECHARGE     =           0.0000
               GW ET     =           0.0000                 GW ET     =           0.0000
     SURFACE LEAKAGE     =           0.0000       SURFACE LEAKAGE     =           0.0000
           AG WELLS      =           0.0000             AG WELLS      =           0.0000

                TOTAL IN =  1239025152.0000                  TOTAL IN =          11.7832

          OUT:                                     OUT:
          ----                                     ----
             STORAGE     =   145073440.0000               STORAGE     =           0.3219
       CONSTANT HEAD     =           0.0000         CONSTANT HEAD     =           0.0000
     HEAD DEP BOUNDS     =    28473434.0000       HEAD DEP BOUNDS     =           0.2891
      STREAM LEAKAGE     =  1048747264.0000        STREAM LEAKAGE     =          11.1722
        UZF RECHARGE     =           0.0000          UZF RECHARGE     =           0.0000
               GW ET     =    16750928.0000                 GW ET     =           0.0000
     SURFACE LEAKAGE     =           0.0000       SURFACE LEAKAGE     =           0.0000
           AG WELLS      =           0.0000             AG WELLS      =           0.0000

               TOTAL OUT =  1239045120.0000                 TOTAL OUT =          11.7832

                IN - OUT =      -19968.0000                  IN - OUT =       7.2479E-05

     PERCENT DISCREPANCY =          -0.00         PERCENT DISCREPANCY =           0.00






         TIME SUMMARY AT END OF TIME STEP   30 IN STRESS PERIOD   38
                    SECONDS     MINUTES      HOURS       DAYS        YEARS
                    -----------------------------------------------------------
   TIME STEP LENGTH  87667.      1461.1      24.352      1.0147     2.77799E-03
 STRESS PERIOD TIME 2.63000E+06  43833.      730.56      30.440     8.33397E-02
         TOTAL TIME 9.73959E+07 1.62326E+06  27054.      1127.3      3.0863    
1
1
                            STRESS PERIOD NO.   39, LENGTH =   2630000.    
                            -----------------------------------------------

                              NUMBER OF TIME STEPS =    30

                               MULTIPLIER FOR DELT =     1.000

                            INITIAL TIME STEP SIZE =   87666.66    

 REUSING NON-PARAMETER GHB CELLS FROM LAST STRESS PERIOD

      2 GHB CELLS

 REUSING STREAM SEGMENT DATA FROM LAST STRESS PERIOD



            AREAL INFILTRATION RATE
 READING ON UNIT   19 WITH FORMAT: (10F4.0)            

            1           2           3           4           5           6           7           8           9          10
 ........................................................................................................................
   1   1.2000E-09   0.000       0.000       0.000       0.000       0.000       0.000       0.000       0.000       0.000    
   2   2.1000E-09  2.0000E-09  8.0000E-10  8.5000E-09   0.000       0.000       0.000       0.000       0.000       0.000    
   3   5.0000E-10  1.1000E-09  8.8000E-09  5.5000E-09   0.000       0.000       0.000       0.000       0.000       0.000    
   4   8.5000E-09  1.1000E-09  1.1000E-09  1.1000E-09  2.0000E-09   0.000       0.000       0.000       0.000       0.000    
   5   8.5000E-09  1.1000E-09  1.1000E-09  1.1000E-09  1.1000E-09   0.000       0.000       0.000       0.000       0.000    
   6   8.5000E-09  5.2000E-09  2.1000E-09  1.1000E-09  1.5000E-09   0.000       0.000       0.000       0.000       0.000    
   7   8.5000E-09  5.2000E-09  2.1000E-09  1.2000E-09  2.0000E-09   0.000       0.000       0.000       0.000       0.000    
   8   5.0000E-10  5.2000E-09  2.1000E-09  1.2000E-09  5.0000E-09   0.000       0.000       0.000       0.000       0.000    
   9   5.0000E-10  5.2000E-09  2.1000E-09  1.2000E-09  5.0000E-09   0.000       0.000       0.000       0.000       0.000    
  10   5.0000E-10  5.2000E-09  2.1000E-09  1.2000E-09  5.8000E-09   0.000       0.000       0.000       0.000       0.000    
  11   1.0000E-10  1.1000E-09  1.1000E-09  1.2000E-09  5.0000E-09   0.000       0.000       0.000       0.000       0.000    
  12   1.1000E-09  1.1000E-09  1.1000E-09  1.1000E-09  2.0000E-09   0.000       0.000       0.000       0.000       0.000    
  13   1.1000E-09  2.2000E-09  2.2000E-09  2.1000E-09  1.0000E-09   0.000       0.000       0.000       0.000       0.000    
  14   2.0000E-10  5.5000E-09  5.5000E-09  5.2000E-09  1.0000E-09   0.000       0.000       0.000       0.000       0.000    
  15    0.000      8.8000E-09  8.8000E-09   0.000       0.000       0.000       0.000       0.000       0.000       0.000    

                  ET RATE =  5.000000E-10

 USING ET EXTINCTION DEPTH FROM PREVIOUS STRESS PERIOD. CURRENT PERIOD IS:      39

 USING EXTINCTION WATER CONTENT FROM PREVIOUS STRESS PERIOD. CURRENT PERIOD IS:      39

 USING AIR ENTRY PRESSURE FROM PREVIOUS STRESS PERIOD. CURRENT PERIOD IS:      39

 USING ROOT PRESSURE HEAD FROM PREVIOUS STRESS PERIOD. CURRENT PERIOD IS:      39

 USING ROOT ACTIVITY FROM PREVIOUS STRESS PERIOD. CURRENT PERIOD IS:      39

 PROCESSING AG STRESS PERIOD DATA

 READING AG STRESS PERIOD DATA

 READING IRRIGATION SEGMENT

 READING IRRIGATION WELL

 READING SUPPLEMENTAL WELL

 END PROCESSING AG STRESS PERIOD DATA OPTIONS
 
 SOLVING FOR HEAD 
                                                   Max.-Head-Change                         Max.-Flux-Residual
  Residual-Control   Outer-Iter.   Inner-Iter.     Column Row Layer    Maximum-Head-Change  Column Row Layer    Maximum-Flux-Residual          L2-NORM 
          0                 1           2             2    1     1       0.1467722309E-02       2    1    1         0.7634800480E-01      0.1406401437E+00
          0                 2           2             2    1     1      -0.1427694785E-03       2    1    1        -0.7634808485E-02      0.1405195017E-01
          0                 3           1             2    1     1       0.9722071283E-05       2    1    1         0.5344367511E-03      0.9824231843E-03

    ------------------------------------------------
       NWT REQUIRED            3 OUTER ITERATIONS 
       AND A TOTAL OF          5 INNER ITERATIONS.
    ------------------------------------------------

 NO OUTPUT CONTROL FOR STRESS PERIOD   39   TIME STEP    1
 
 SOLVING FOR HEAD 
                                                   Max.-Head-Change                         Max.-Flux-Residual
  Residual-Control   Outer-Iter.   Inner-Iter.     Column Row Layer    Maximum-Head-Change  Column Row Layer    Maximum-Flux-Residual          L2-NORM 
          0                 1           2             2    1     1       0.1463212597E-02       2    1    1         0.7611287649E-01      0.1395988479E+00
          0                 2           2             2    1     1      -0.1423308058E-03       2    1    1        -0.7611295595E-02      0.1394860175E-01
          0                 3           1             2    1     1       0.9692199566E-05       2    1    1         0.5327908568E-03      0.9753786280E-03

    ------------------------------------------------
       NWT REQUIRED            3 OUTER ITERATIONS 
       AND A TOTAL OF          5 INNER ITERATIONS.
    ------------------------------------------------

 NO OUTPUT CONTROL FOR STRESS PERIOD   39   TIME STEP    2
 
 SOLVING FOR HEAD 
                                                   Max.-Head-Change                         Max.-Flux-Residual
  Residual-Control   Outer-Iter.   Inner-Iter.     Column Row Layer    Maximum-Head-Change  Column Row Layer    Maximum-Flux-Residual          L2-NORM 
          0                 1           2             2    1     1       0.1459152886E-02       2    1    1         0.7587905203E-01      0.1275649797E+00
          0                 2           2             2    1     1      -0.1419359009E-03       2    1    1        -0.7587912787E-02      0.1275289344E-01
          0                 3           1             2    1     1       0.9665308039E-05       2    1    1         0.5311540542E-03      0.8929826377E-03

    ------------------------------------------------
       NWT REQUIRED            3 OUTER ITERATIONS 
       AND A TOTAL OF          5 INNER ITERATIONS.
    ------------------------------------------------

 NO OUTPUT CONTROL FOR STRESS PERIOD   39   TIME STEP    3
 
 SOLVING FOR HEAD 
                                                   Max.-Head-Change                         Max.-Flux-Residual
  Residual-Control   Outer-Iter.   Inner-Iter.     Column Row Layer    Maximum-Head-Change  Column Row Layer    Maximum-Flux-Residual          L2-NORM 
          0                 1           2             2    1     1       0.1455296361E-02       2    1    1         0.7566742242E-01      0.1257758568E+00
          0                 2           2             2    1     1      -0.1415607628E-03       2    1    1        -0.7566749602E-02      0.1255818921E-01
          0                 3           1             2    1     1       0.9639762946E-05       2    1    1         0.5296726379E-03      0.8774437653E-03

    ------------------------------------------------
       NWT REQUIRED            3 OUTER ITERATIONS 
       AND A TOTAL OF          5 INNER ITERATIONS.
    ------------------------------------------------

 NO OUTPUT CONTROL FOR STRESS PERIOD   39   TIME STEP    4
 
 SOLVING FOR HEAD 
                                                   Max.-Head-Change                         Max.-Flux-Residual
  Residual-Control   Outer-Iter.   Inner-Iter.     Column Row Layer    Maximum-Head-Change  Column Row Layer    Maximum-Flux-Residual          L2-NORM 
          0                 1           2             2    1     1       0.1451481740E-02       2    1    1         0.7546861225E-01      0.1242370317E+00
          0                 2           2             2    1     1      -0.1411897032E-03       2    1    1        -0.7546868518E-02      0.1240759469E-01
          0                 3           1             2    1     1       0.9614495234E-05       2    1    1         0.5282809660E-03      0.8676008965E-03

    ------------------------------------------------
       NWT REQUIRED            3 OUTER ITERATIONS 
       AND A TOTAL OF          5 INNER ITERATIONS.
    ------------------------------------------------

 NO OUTPUT CONTROL FOR STRESS PERIOD   39   TIME STEP    5
 
 SOLVING FOR HEAD 
                                                   Max.-Head-Change                         Max.-Flux-Residual
  Residual-Control   Outer-Iter.   Inner-Iter.     Column Row Layer    Maximum-Head-Change  Column Row Layer    Maximum-Flux-Residual          L2-NORM 
          0                 1           2             2    1     1       0.1447686638E-02       2    1    1         0.7527082772E-01      0.1228548367E+00
          0                 2           2             2    1     1      -0.1408205425E-03       2    1    1        -0.7527090025E-02      0.1227218330E-01
          0                 3           1             2    1     1       0.9589356509E-05       2    1    1         0.5268964640E-03      0.8579353529E-03

    ------------------------------------------------
       NWT REQUIRED            3 OUTER ITERATIONS 
       AND A TOTAL OF          5 INNER ITERATIONS.
    ------------------------------------------------

 NO OUTPUT CONTROL FOR STRESS PERIOD   39   TIME STEP    6
 
 SOLVING FOR HEAD 
                                                   Max.-Head-Change                         Max.-Flux-Residual
  Residual-Control   Outer-Iter.   Inner-Iter.     Column Row Layer    Maximum-Head-Change  Column Row Layer    Maximum-Flux-Residual          L2-NORM 
          0                 1           2             2    1     1       0.1443910994E-02       2    1    1         0.7507405513E-01      0.1216105377E+00
          0                 2           2             2    1     1      -0.1404532746E-03       2    1    1        -0.7507412731E-02      0.1215085913E-01
          0                 3           1             2    1     1       0.9564346771E-05       2    1    1         0.5255190298E-03      0.8506747282E-03

    ------------------------------------------------
       NWT REQUIRED            3 OUTER ITERATIONS 
       AND A TOTAL OF          5 INNER ITERATIONS.
    ------------------------------------------------

 NO OUTPUT CONTROL FOR STRESS PERIOD   39   TIME STEP    7
 
 SOLVING FOR HEAD 
                                                   Max.-Head-Change                         Max.-Flux-Residual
  Residual-Control   Outer-Iter.   Inner-Iter.     Column Row Layer    Maximum-Head-Change  Column Row Layer    Maximum-Flux-Residual          L2-NORM 
          0                 1           2             2    1     1       0.1440154682E-02       2    1    1         0.7487829151E-01      0.1204766582E+00
          0                 2           2             2    1     1      -0.1400878873E-03       2    1    1        -0.7487836319E-02      0.1203897710E-01
          0                 3           1             2    1     1       0.9539465310E-05       2    1    1         0.5241487003E-03      0.8419599127E-03

    ------------------------------------------------
       NWT REQUIRED            3 OUTER ITERATIONS 
       AND A TOTAL OF          5 INNER ITERATIONS.
    ------------------------------------------------

 NO OUTPUT CONTROL FOR STRESS PERIOD   39   TIME STEP    8
 
 SOLVING FOR HEAD 
                                                   Max.-Head-Change                         Max.-Flux-Residual
  Residual-Control   Outer-Iter.   Inner-Iter.     Column Row Layer    Maximum-Head-Change  Column Row Layer    Maximum-Flux-Residual          L2-NORM 
          0                 1           2             2    1     1       0.1436395399E-02       2    1    1         0.7468238597E-01      0.1194453209E+00
          0                 2           2             2    1     1      -0.1397222108E-03       2    1    1        -0.7468245715E-02      0.1193717016E-01
          0                 3           1             2    1     1       0.9514564205E-05       2    1    1         0.5227773554E-03      0.8348647567E-03

    ------------------------------------------------
       NWT REQUIRED            3 OUTER ITERATIONS 
       AND A TOTAL OF          5 INNER ITERATIONS.
    ------------------------------------------------

 NO OUTPUT CONTROL FOR STRESS PERIOD   39   TIME STEP    9
 
 SOLVING FOR HEAD 
                                                   Max.-Head-Change                         Max.-Flux-Residual
  Residual-Control   Outer-Iter.   Inner-Iter.     Column Row Layer    Maximum-Head-Change  Column Row Layer    Maximum-Flux-Residual          L2-NORM 
          0                 1           2             2    1     1       0.1432677175E-02       2    1    1         0.7448861484E-01      0.1185041375E+00
          0                 2           2             2    1     1      -0.1393605283E-03       2    1    1        -0.7448868566E-02      0.1184466908E-01
          0                 3           1             2    1     1       0.9489934801E-05       2    1    1         0.5214209410E-03      0.8285282404E-03

    ------------------------------------------------
       NWT REQUIRED            3 OUTER ITERATIONS 
       AND A TOTAL OF          5 INNER ITERATIONS.
    ------------------------------------------------

 NO OUTPUT CONTROL FOR STRESS PERIOD   39   TIME STEP   10
 
 SOLVING FOR HEAD 
                                                   Max.-Head-Change                         Max.-Flux-Residual
  Residual-Control   Outer-Iter.   Inner-Iter.     Column Row Layer    Maximum-Head-Change  Column Row Layer    Maximum-Flux-Residual          L2-NORM 
          0                 1           2             2    1     1       0.1428977788E-02       2    1    1         0.7429582832E-01      0.1176309409E+00
          0                 2           2             2    1     1      -0.1390006781E-03       2    1    1        -0.7429589858E-02      0.1175837412E-01
          0                 3           1             2    1     1       0.9465430361E-05       2    1    1         0.5200714403E-03      0.8227265294E-03

    ------------------------------------------------
       NWT REQUIRED            3 OUTER ITERATIONS 
       AND A TOTAL OF          5 INNER ITERATIONS.
    ------------------------------------------------

 NO OUTPUT CONTROL FOR STRESS PERIOD   39   TIME STEP   11
 
 SOLVING FOR HEAD 
                                                   Max.-Head-Change                         Max.-Flux-Residual
  Residual-Control   Outer-Iter.   Inner-Iter.     Column Row Layer    Maximum-Head-Change  Column Row Layer    Maximum-Flux-Residual          L2-NORM 
          0                 1           2             2    1     1       0.1425275073E-02       2    1    1         0.7410287420E-01      0.1168209516E+00
          0                 2           2             2    1     1      -0.1386405045E-03       2    1    1        -0.7410294415E-02      0.1167840912E-01
          0                 3           1             2    1     1       0.9440903909E-05       2    1    1         0.5187207653E-03      0.8171065989E-03

    ------------------------------------------------
       NWT REQUIRED            3 OUTER ITERATIONS 
       AND A TOTAL OF          5 INNER ITERATIONS.
    ------------------------------------------------

 NO OUTPUT CONTROL FOR STRESS PERIOD   39   TIME STEP   12
 
 SOLVING FOR HEAD 
                                                   Max.-Head-Change                         Max.-Flux-Residual
  Residual-Control   Outer-Iter.   Inner-Iter.     Column Row Layer    Maximum-Head-Change  Column Row Layer    Maximum-Flux-Residual          L2-NORM 
          0                 1           2             2    1     1       0.1421612964E-02       2    1    1         0.7391203614E-01      0.1160630258E+00
          0                 2           2             2    1     1      -0.1382842802E-03       2    1    1        -0.7391210554E-02      0.1160351613E-01
          0                 3           1             2    1     1       0.9416646319E-05       2    1    1         0.5173848857E-03      0.8120274942E-03

    ------------------------------------------------
       NWT REQUIRED            3 OUTER ITERATIONS 
       AND A TOTAL OF          5 INNER ITERATIONS.
    ------------------------------------------------

 NO OUTPUT CONTROL FOR STRESS PERIOD   39   TIME STEP   13
 
 SOLVING FOR HEAD 
                                                   Max.-Head-Change                         Max.-Flux-Residual
  Residual-Control   Outer-Iter.   Inner-Iter.     Column Row Layer    Maximum-Head-Change  Column Row Layer    Maximum-Flux-Residual          L2-NORM 
          0                 1           2             2    1     1       0.1417969245E-02       2    1    1         0.7372215921E-01      0.1153513609E+00
          0                 2           2             2    1     1      -0.1379298451E-03       2    1    1        -0.7372222808E-02      0.1153295038E-01
          0                 3           1             2    1     1       0.9392511089E-05       2    1    1         0.5160557570E-03      0.8071514744E-03

    ------------------------------------------------
       NWT REQUIRED            3 OUTER ITERATIONS 
       AND A TOTAL OF          5 INNER ITERATIONS.
    ------------------------------------------------

 NO OUTPUT CONTROL FOR STRESS PERIOD   39   TIME STEP   14
 
 SOLVING FOR HEAD 
                                                   Max.-Head-Change                         Max.-Flux-Residual
  Residual-Control   Outer-Iter.   Inner-Iter.     Column Row Layer    Maximum-Head-Change  Column Row Layer    Maximum-Flux-Residual          L2-NORM 
          0                 1           2             2    1     1       0.1414321753E-02       2    1    1         0.7353209129E-01      0.1146812796E+00
          0                 2           2             2    1     1      -0.1375750431E-03       2    1    1        -0.7353215992E-02      0.1146648461E-01
          0                 3           1             2    1     1       0.9368350298E-05       2    1    1         0.5147252814E-03      0.8026293631E-03

    ------------------------------------------------
       NWT REQUIRED            3 OUTER ITERATIONS 
       AND A TOTAL OF          5 INNER ITERATIONS.
    ------------------------------------------------

 NO OUTPUT CONTROL FOR STRESS PERIOD   39   TIME STEP   15
 
 SOLVING FOR HEAD 
                                                   Max.-Head-Change                         Max.-Flux-Residual
  Residual-Control   Outer-Iter.   Inner-Iter.     Column Row Layer    Maximum-Head-Change  Column Row Layer    Maximum-Flux-Residual          L2-NORM 
          0                 1           2             2    1     1       0.1410714462E-02       2    1    1         0.7334411660E-01      0.1140440582E+00
          0                 2           2             2    1     1      -0.1372241511E-03       2    1    1        -0.7334418466E-02      0.1140307967E-01
          0                 3           1             2    1     1       0.9344455764E-05       2    1    1         0.5134094431E-03      0.7981332399E-03

    ------------------------------------------------
       NWT REQUIRED            3 OUTER ITERATIONS 
       AND A TOTAL OF          5 INNER ITERATIONS.
    ------------------------------------------------

 NO OUTPUT CONTROL FOR STRESS PERIOD   39   TIME STEP   16
 
 SOLVING FOR HEAD 
                                                   Max.-Head-Change                         Max.-Flux-Residual
  Residual-Control   Outer-Iter.   Inner-Iter.     Column Row Layer    Maximum-Head-Change  Column Row Layer    Maximum-Flux-Residual          L2-NORM 
          0                 1           2             2    1     1       0.1407103109E-02       2    1    1         0.7315593736E-01      0.1134351233E+00
          0                 2           2             2    1     1      -0.1368728641E-03       2    1    1        -0.7315600487E-02      0.1134244507E-01
          0                 3           1             2    1     1       0.9320534487E-05       2    1    1         0.5120921940E-03      0.7938403641E-03

    ------------------------------------------------
       NWT REQUIRED            3 OUTER ITERATIONS 
       AND A TOTAL OF          5 INNER ITERATIONS.
    ------------------------------------------------

 NO OUTPUT CONTROL FOR STRESS PERIOD   39   TIME STEP   17
 
 SOLVING FOR HEAD 
                                                   Max.-Head-Change                         Max.-Flux-Residual
  Residual-Control   Outer-Iter.   Inner-Iter.     Column Row Layer    Maximum-Head-Change  Column Row Layer    Maximum-Flux-Residual          L2-NORM 
          0                 1           2             2    1     1       0.1403531646E-02       2    1    1         0.7296983658E-01      0.1128547062E+00
          0                 2           2             2    1     1      -0.1365254574E-03       2    1    1        -0.7296990356E-02      0.1128471798E-01
          0                 3           1             2    1     1       0.9296877337E-05       2    1    1         0.5107894870E-03      0.7898509406E-03

    ------------------------------------------------
       NWT REQUIRED            3 OUTER ITERATIONS 
       AND A TOTAL OF          5 INNER ITERATIONS.
    ------------------------------------------------

 NO OUTPUT CONTROL FOR STRESS PERIOD   39   TIME STEP   18
 
 SOLVING FOR HEAD 
                                                   Max.-Head-Change                         Max.-Flux-Residual
  Residual-Control   Outer-Iter.   Inner-Iter.     Column Row Layer    Maximum-Head-Change  Column Row Layer    Maximum-Flux-Residual          L2-NORM 
          0                 1           2             2    1     1       0.1399955840E-02       2    1    1         0.7278351490E-01      0.1122985192E+00
          0                 2           2             2    1     1      -0.1361776289E-03       2    1    1        -0.7278358169E-02      0.1122932327E-01
          0                 3           1             2    1     1       0.9273191786E-05       2    1    1         0.5094852428E-03      0.7859808420E-03

    ------------------------------------------------
       NWT REQUIRED            3 OUTER ITERATIONS 
       AND A TOTAL OF          5 INNER ITERATIONS.
    ------------------------------------------------

 NO OUTPUT CONTROL FOR STRESS PERIOD   39   TIME STEP   19
 
 SOLVING FOR HEAD 
                                                   Max.-Head-Change                         Max.-Flux-Residual
  Residual-Control   Outer-Iter.   Inner-Iter.     Column Row Layer    Maximum-Head-Change  Column Row Layer    Maximum-Flux-Residual          L2-NORM 
          0                 1           2             2    1     1       0.1396419678E-02       2    1    1         0.7259925725E-01      0.1117593222E+00
          0                 2           2             2    1     1      -0.1358336562E-03       2    1    1        -0.7259932373E-02      0.1117559999E-01
          0                 3           1             2    1     1       0.9249768232E-05       2    1    1         0.5081954259E-03      0.7823061371E-03

    ------------------------------------------------
       NWT REQUIRED            3 OUTER ITERATIONS 
       AND A TOTAL OF          5 INNER ITERATIONS.
    ------------------------------------------------

 NO OUTPUT CONTROL FOR STRESS PERIOD   39   TIME STEP   20
 
 SOLVING FOR HEAD 
                                                   Max.-Head-Change                         Max.-Flux-Residual
  Residual-Control   Outer-Iter.   Inner-Iter.     Column Row Layer    Maximum-Head-Change  Column Row Layer    Maximum-Flux-Residual          L2-NORM 
          0                 1           2             2    1     1       0.1392878898E-02       2    1    1         0.7241476584E-01      0.1112385333E+00
          0                 2           2             2    1     1      -0.1354892340E-03       2    1    1        -0.7241483182E-02      0.1112355757E-01
          0                 3           1             2    1     1       0.9226314384E-05       2    1    1         0.5069039757E-03      0.7786116665E-03

    ------------------------------------------------
       NWT REQUIRED            3 OUTER ITERATIONS 
       AND A TOTAL OF          5 INNER ITERATIONS.
    ------------------------------------------------

 NO OUTPUT CONTROL FOR STRESS PERIOD   39   TIME STEP   21
 
 SOLVING FOR HEAD 
                                                   Max.-Head-Change                         Max.-Flux-Residual
  Residual-Control   Outer-Iter.   Inner-Iter.     Column Row Layer    Maximum-Head-Change  Column Row Layer    Maximum-Flux-Residual          L2-NORM 
          0                 1           2             2    1     1       0.1389355543E-02       2    1    1         0.7223117961E-01      0.1126808974E+00
          0                 2           2             2    1     1      -0.1351465069E-03       2    1    1        -0.7223124509E-02      0.1139010630E-01
          0                 3           1             2    1     1       0.9202975559E-05       2    1    1         0.5056188697E-03      0.8505324117E-03

    ------------------------------------------------
       NWT REQUIRED            3 OUTER ITERATIONS 
       AND A TOTAL OF          5 INNER ITERATIONS.
    ------------------------------------------------

 NO OUTPUT CONTROL FOR STRESS PERIOD   39   TIME STEP   22
 
 SOLVING FOR HEAD 
                                                   Max.-Head-Change                         Max.-Flux-Residual
  Residual-Control   Outer-Iter.   Inner-Iter.     Column Row Layer    Maximum-Head-Change  Column Row Layer    Maximum-Flux-Residual          L2-NORM 
          0                 1           2             2    1     1       0.1385871402E-02       2    1    1         0.7204964165E-01      0.1181028878E+00
          0                 2           2             2    1     1      -0.1348075945E-03       2    1    1        -0.7204970682E-02      0.1229611494E-01
          0                 3           1             3   13     1       0.1231181378E-04       3   13    1         0.7091733014E-03      0.1047941993E-02

    ------------------------------------------------
       NWT REQUIRED            3 OUTER ITERATIONS 
       AND A TOTAL OF          5 INNER ITERATIONS.
    ------------------------------------------------

 NO OUTPUT CONTROL FOR STRESS PERIOD   39   TIME STEP   23
 
 SOLVING FOR HEAD 
                                                   Max.-Head-Change                         Max.-Flux-Residual
  Residual-Control   Outer-Iter.   Inner-Iter.     Column Row Layer    Maximum-Head-Change  Column Row Layer    Maximum-Flux-Residual          L2-NORM 
          0                 1           2             2    1     1       0.1382382269E-02       2    1    1         0.7186784727E-01      0.1158355028E+00
          0                 2           2             2    1     1      -0.1344681966E-03       2    1    1        -0.7186791207E-02      0.1196407694E-01
          0                 3           1             3   13     1       0.1077218922E-04       3   13    1         0.6205241998E-03      0.9873459195E-03

    ------------------------------------------------
       NWT REQUIRED            3 OUTER ITERATIONS 
       AND A TOTAL OF          5 INNER ITERATIONS.
    ------------------------------------------------

 NO OUTPUT CONTROL FOR STRESS PERIOD   39   TIME STEP   24
 
 SOLVING FOR HEAD 
                                                   Max.-Head-Change                         Max.-Flux-Residual
  Residual-Control   Outer-Iter.   Inner-Iter.     Column Row Layer    Maximum-Head-Change  Column Row Layer    Maximum-Flux-Residual          L2-NORM 
          0                 1           2             2    1     1       0.1378910166E-02       2    1    1         0.7168693891E-01      0.1139558363E+00
          0                 2           2             2    1     1      -0.1341304551E-03       2    1    1        -0.7168700334E-02      0.1169037836E-01
          0                 3           1             3   13     1       0.9413350178E-05       3   13    1         0.5422659879E-03      0.9373537658E-03

    ------------------------------------------------
       NWT REQUIRED            3 OUTER ITERATIONS 
       AND A TOTAL OF          5 INNER ITERATIONS.
    ------------------------------------------------

 NO OUTPUT CONTROL FOR STRESS PERIOD   39   TIME STEP   25
 
 SOLVING FOR HEAD 
                                                   Max.-Head-Change                         Max.-Flux-Residual
  Residual-Control   Outer-Iter.   Inner-Iter.     Column Row Layer    Maximum-Head-Change  Column Row Layer    Maximum-Flux-Residual          L2-NORM 
          0                 1           2             2    1     1       0.1375476889E-02       2    1    1         0.7150805847E-01      0.1123991886E+00
          0                 2           2             2    1     1      -0.1337964899E-03       2    1    1        -0.7150812247E-02      0.1147198759E-01
          0                 3           1             2    1     1       0.9111044324E-05       2    1    1         0.5005570089E-03      0.8983600489E-03

    ------------------------------------------------
       NWT REQUIRED            3 OUTER ITERATIONS 
       AND A TOTAL OF          5 INNER ITERATIONS.
    ------------------------------------------------

 NO OUTPUT CONTROL FOR STRESS PERIOD   39   TIME STEP   26
 
 SOLVING FOR HEAD 
                                                   Max.-Head-Change                         Max.-Flux-Residual
  Residual-Control   Outer-Iter.   Inner-Iter.     Column Row Layer    Maximum-Head-Change  Column Row Layer    Maximum-Flux-Residual          L2-NORM 
          0                 1           2             2    1     1       0.1372038333E-02       2    1    1         0.7132890124E-01      0.1110936772E+00
          0                 2           2             2    1     1      -0.1334620116E-03       2    1    1        -0.7132896481E-02      0.1128971819E-01
          0                 3           1             2    1     1       0.9088267835E-05       2    1    1         0.4993029099E-03      0.8655349198E-03

    ------------------------------------------------
       NWT REQUIRED            3 OUTER ITERATIONS 
       AND A TOTAL OF          5 INNER ITERATIONS.
    ------------------------------------------------

 NO OUTPUT CONTROL FOR STRESS PERIOD   39   TIME STEP   27
 
 SOLVING FOR HEAD 
                                                   Max.-Head-Change                         Max.-Flux-Residual
  Residual-Control   Outer-Iter.   Inner-Iter.     Column Row Layer    Maximum-Head-Change  Column Row Layer    Maximum-Flux-Residual          L2-NORM 
          0                 1           2             2    1     1       0.1368616323E-02       2    1    1         0.7115061526E-01      0.1099841509E+00
          0                 2           2             2    1     1      -0.1331291430E-03       2    1    1        -0.7115067844E-02      0.1114120290E-01
          0                 3           1             2    1     1       0.9065600925E-05       2    1    1         0.4980549121E-03      0.8323988401E-03

    ------------------------------------------------
       NWT REQUIRED            3 OUTER ITERATIONS 
       AND A TOTAL OF          5 INNER ITERATIONS.
    ------------------------------------------------

 NO OUTPUT CONTROL FOR STRESS PERIOD   39   TIME STEP   28
 
 SOLVING FOR HEAD 
                                                   Max.-Head-Change                         Max.-Flux-Residual
  Residual-Control   Outer-Iter.   Inner-Iter.     Column Row Layer    Maximum-Head-Change  Column Row Layer    Maximum-Flux-Residual          L2-NORM 
          0                 1           2             2    1     1       0.1365210837E-02       2    1    1         0.7097318718E-01      0.1098567543E+00
          0                 2           2             2    1     1      -0.1327978815E-03       2    1    1        -0.7097325002E-02      0.1114541176E-01
          0                 3           1             2    1     1       0.9043043123E-05       2    1    1         0.4968129023E-03      0.8520612618E-03

    ------------------------------------------------
       NWT REQUIRED            3 OUTER ITERATIONS 
       AND A TOTAL OF          5 INNER ITERATIONS.
    ------------------------------------------------

 NO OUTPUT CONTROL FOR STRESS PERIOD   39   TIME STEP   29
 
 SOLVING FOR HEAD 
                                                   Max.-Head-Change                         Max.-Flux-Residual
  Residual-Control   Outer-Iter.   Inner-Iter.     Column Row Layer    Maximum-Head-Change  Column Row Layer    Maximum-Flux-Residual          L2-NORM 
          0                 1           2             4   13     1       0.6968411567E-02       4   13    1         0.4005411200E+00      0.7102243356E+00
          0                 2           2             7   13     1      -0.1269690905E-02       7   13    1        -0.7040610012E-01      0.1088668778E+00
          0                 3           1             4   13     1       0.1166786592E-03       4   13    1         0.6704640583E-02      0.1083799969E-01
          0                 4           1             4   13     1       0.1494080123E-04       4   13    1         0.8585024716E-03      0.1216600045E-02

    ------------------------------------------------
       NWT REQUIRED            4 OUTER ITERATIONS 
       AND A TOTAL OF          6 INNER ITERATIONS.
    ------------------------------------------------

 NO OUTPUT CONTROL FOR STRESS PERIOD   39   TIME STEP   30



 STREAM LISTING     PERIOD     39   STEP       30

 LAYER ROW COL. STREAM  RCH.  FLOW INTO     FLOW TO   FLOW OUT OF   OVRLND.     DIRECT     STREAM       STREAM     STREAM     STREAM   STREAMBED  STREAMBED
                SEG.NO.  NO.  STRM. RCH.    AQUIFER    STRM. RCH.    RUNOFF     PRECIP       ET          HEAD       DEPTH      WIDTH   CONDCTNC.   GRADIENT

   1    1    1     1     1    3.2750E+01  2.7790E-01   3.2473E+01  0.000E+00  0.000E+00  0.000E+00  1.09432E+03  1.273E+00  1.445E+01  6.503E-02  1.424E+00
   1    2    2     1     2    3.2473E+01  4.3019E-01   3.2042E+01  0.000E+00  0.000E+00  0.000E+00  1.08933E+03  1.270E+00  1.439E+01  1.007E-01  1.423E+00
   1    3    3     1     3    3.2042E+01  3.6669E-01   3.1676E+01  0.000E+00  0.000E+00  0.000E+00  1.08369E+03  1.267E+00  1.432E+01  8.594E-02  1.422E+00
   1    3    4     1     4    3.1676E+01  3.3752E-01   3.1338E+01  0.000E+00  0.000E+00  0.000E+00  1.07867E+03  1.264E+00  1.426E+01  7.916E-02  1.421E+00
   1    4    5     2     1    2.9338E+01  3.3732E-01   2.9001E+01  0.000E+00  0.000E+00  0.000E+00  1.07326E+03  1.325E+00  1.200E+01  7.800E-02  1.442E+00
   1    5    6     2     2    2.9001E+01  2.5899E-01   2.8742E+01  0.000E+00  0.000E+00  0.000E+00  1.06783E+03  1.317E+00  1.200E+01  6.000E-02  1.439E+00
   1    6    6     2     3    2.8742E+01  2.5857E-01   2.8483E+01  0.000E+00  0.000E+00  0.000E+00  1.06310E+03  1.309E+00  1.200E+01  6.000E-02  1.436E+00
   1    7    6     2     4    2.8483E+01  2.5814E-01   2.8225E+01  0.000E+00  0.000E+00  0.000E+00  1.05838E+03  1.302E+00  1.200E+01  6.000E-02  1.434E+00
   1    8    6     2     5    2.8225E+01  2.5771E-01   2.7967E+01  0.000E+00  0.000E+00  0.000E+00  1.05365E+03  1.295E+00  1.200E+01  6.000E-02  1.432E+00
   1    3    5     3     1    2.0000E+00  2.8252E-01   1.7175E+00  0.000E+00  0.000E+00  0.000E+00  1.07555E+03  1.909E+00  9.636E+00  7.227E-02  1.955E+00
   1    3    6     3     2    1.7175E+00  2.4905E-01   1.4684E+00  0.000E+00  0.000E+00  0.000E+00  1.07264E+03  1.727E+00  8.909E+00  6.682E-02  1.864E+00
   1    3    7     3     3    1.4684E+00  1.9718E-01   1.2712E+00  0.000E+00  0.000E+00  0.000E+00  1.06987E+03  1.555E+00  8.218E+00  5.547E-02  1.777E+00
   1    4    8     3     4    1.2712E+00  2.2567E-01   1.0456E+00  0.000E+00  0.000E+00  0.000E+00  1.06682E+03  1.364E+00  7.455E+00  6.709E-02  1.682E+00
   1    5    8     3     5    1.0456E+00  1.5790E-01   8.8768E-01  0.000E+00  0.000E+00  0.000E+00  1.06362E+03  1.164E+00  6.655E+00  4.991E-02  1.582E+00
   1    6    8     3     6    8.8768E-01  5.5980E-02   8.3170E-01  0.000E+00  0.000E+00  0.000E+00  1.06158E+03  1.036E+00  6.145E+00  1.844E-02  1.518E+00
   1    5   10     4     1    1.0000E+01  9.0919E-02   9.9091E+00  0.000E+00  0.000E+00  0.000E+00  1.07836E+03  6.368E-01  1.000E+01  2.500E-02  1.212E+00
   1    5    9     4     2    9.9091E+00  1.8158E-01   9.7275E+00  0.000E+00  0.000E+00  0.000E+00  1.07154E+03  6.315E-01  1.000E+01  5.000E-02  1.211E+00
   1    6    8     4     3    9.7275E+00  1.2689E-01   9.6006E+00  0.000E+00  0.000E+00  0.000E+00  1.06381E+03  6.256E-01  1.000E+01  3.500E-02  1.209E+00
   1    6    8     5     1    1.0432E+01  2.2686E-01   1.0205E+01  0.000E+00  0.000E+00  0.000E+00  1.05868E+03  6.790E-01  1.542E+01  6.166E-02  1.226E+00
   1    7    7     5     2    1.0205E+01  2.7894E-01   9.9265E+00  0.000E+00  0.000E+00  0.000E+00  1.05417E+03  6.732E-01  1.519E+01  7.594E-02  1.224E+00
   1    8    7     5     3    9.9265E+00  1.9221E-01   9.7343E+00  0.000E+00  0.000E+00  0.000E+00  1.04992E+03  6.676E-01  1.497E+01  5.241E-02  1.223E+00
   1    8    6     5     4    9.7343E+00  1.3577E-01   9.5985E+00  0.000E+00  0.000E+00  0.000E+00  1.04691E+03  6.637E-01  1.482E+01  3.706E-02  1.221E+00
   1    9    6     6     1    3.7566E+01  2.7334E-01   3.7293E+01  0.000E+00  0.000E+00  0.000E+00  1.04428E+03  1.556E+00  1.200E+01  6.000E-02  1.519E+00
   1   10    7     6     2    3.7293E+01  2.7293E-01   3.7020E+01  0.000E+00  0.000E+00  0.000E+00  1.03973E+03  1.549E+00  1.200E+01  6.000E-02  1.516E+00
   1   11    7     6     3    3.7020E+01  2.7252E-01   3.6747E+01  0.000E+00  0.000E+00  0.000E+00  1.03518E+03  1.542E+00  1.200E+01  6.000E-02  1.514E+00
   1   12    7     6     4    3.6747E+01  2.7211E-01   3.6475E+01  0.000E+00  0.000E+00  0.000E+00  1.03063E+03  1.535E+00  1.200E+01  6.000E-02  1.512E+00
   1   13    7     6     5    3.6475E+01  6.7546E-03   3.6468E+01  0.000E+00  0.000E+00  0.000E+00  1.02744E+03  1.532E+00  1.200E+01  2.400E-02  9.381E-02
   1   14    9     7     1    1.5000E+02  1.3320E+00   1.4867E+02  0.000E+00  0.000E+00  0.000E+00  1.03987E+03  2.288E+00  5.529E+01  5.593E-01  7.939E-01
   1   13    8     7     2    1.4867E+02  1.8084E+00   1.4686E+02  0.000E+00  0.000E+00  0.000E+00  1.03478E+03  2.279E+00  5.526E+01  6.148E-01  9.805E-01
   1   13    7     7     3    1.4686E+02  1.4134E+00   1.4545E+02  0.000E+00  0.000E+00  0.000E+00  1.02969E+03  2.271E+00  5.522E+01  5.585E-01  8.436E-01
   1   13    6     8     1    1.8191E+02  9.1175E-01   1.8100E+02  0.000E+00  0.000E+00  0.000E+00  1.02490E+03  3.025E+00  4.387E+01  4.470E-01  6.799E-01
   1   13    5     8     2    1.8100E+02  1.4578E-01   1.8086E+02  0.000E+00  0.000E+00  0.000E+00  1.01865E+03  3.022E+00  4.382E+01  4.465E-01  1.088E-01
   1   13    4     8     3    1.8086E+02 -2.3796E+00   1.8324E+02  0.000E+00  0.000E+00  0.000E+00  1.01240E+03  3.029E+00  4.392E+01  4.476E+00 -1.772E-01
   1   13    3     8     4    1.8324E+02 -3.4956E+00   1.8673E+02  0.000E+00  0.000E+00  0.000E+00  1.00617E+03  3.047E+00  4.418E+01  4.503E+00 -2.588E-01
   1   13    2     8     5    1.8673E+02 -2.2728E+00   1.8900E+02  0.000E+00  0.000E+00  0.000E+00  9.99940E+02  3.065E+00  4.444E+01  4.529E+00 -1.673E-01
   1   13    1     8     6    1.8900E+02 -1.7976E+00   1.9080E+02  0.000E+00  0.000E+00  0.000E+00  9.94952E+02  3.077E+00  4.462E+01  2.728E+00 -2.196E-01
   1    8    6     9     1    0.0000E+00  0.0000E+00   0.0000E+00  0.000E+00  0.000E+00  0.000E+00  1.07875E+03  0.000E+00  4.000E+00  0.000E+00  1.000E+00
   1    8    5     9     2    0.0000E+00  0.0000E+00   0.0000E+00  0.000E+00  0.000E+00  0.000E+00  1.07825E+03  0.000E+00  4.000E+00  0.000E+00  1.000E+00





UNSATURATED ZONE PACKAGE VOLUMETRIC BUDGET FOR  TIME STEP    30 STRESS PERIOD   39
  ------------------------------------------------------------------------------



     CUMULATIVE VOLUMES      L**3       RATES FOR THIS TIME STEP      L**3/T
     ------------------                 ------------------------

           IN:                                      IN:
           ---                                      ---
        INFILTRATION =   441407576.8684          INFILTRATION =           4.4075

          OUT:                                     OUT:
          ----                                     ----
              UZF ET =   308882376.1000                UZF ET =           0.7250
        UZF RECHARGE =     1340916.3471          UZF RECHARGE =           0.2773

            IN - OUT =   131184284.4213              IN - OUT =           3.4052

          STORAGE:                                 STORAGE:
          --------                                 --------
      STORAGE CHANGE =   131185445.8482        STORAGE CHANGE =           3.4052

 PERCENT DISCREPANCY IS DIFFERENCE BETWEEN IN-OUT MINUS CHANGE IN STORAGE
 DIVIDED BY THE AVERAGE OF IN AND OUT TIMES 100

 PERCENT DISCREPANCY =          -0.00     PERCENT DISCREPANCY =           0.00






1
  VOLUMETRIC BUDGET FOR ENTIRE MODEL AT END OF TIME STEP   30, STRESS PERIOD  39
  ------------------------------------------------------------------------------

     CUMULATIVE VOLUMES      L**3       RATES FOR THIS TIME STEP      L**3/T
     ------------------                 ------------------------

           IN:                                      IN:
           ---                                      ---
               AG WELLS  =           0.0000                 AG WELLS  =           0.0000
        DIVERSION SEGMEN =      848802.5000          DIVERSION SEGMEN =           0.0000
    TS         GW IRRIGA =           0.0000      TS         GW IRRIGA =           0.0000
    TION         SW IRRI =           0.0000      TION         SW IRRI =           0.0000
    GATION      SYSTEM L =           0.0000      GATION      SYSTEM L =           0.0000
    OSSES GW      SYSTEM =           0.1856      OSSES GW      SYSTEM =           0.0000

                TOTAL IN =      848802.6875                  TOTAL IN =           0.0000

          OUT:                                     OUT:
          ----                                     ----
               AG WELLS  =           0.0000                 AG WELLS  =           0.0000
        DIVERSION SEGMEN =           0.0000          DIVERSION SEGMEN =           0.0000
    TS         GW IRRIGA =           0.0000      TS         GW IRRIGA =           0.0000
    TION         SW IRRI =      848819.6875      TION         SW IRRI =           0.0000
    GATION      SYSTEM L =           0.0000      GATION      SYSTEM L =           0.0000
    OSSES GW      SYSTEM =           0.0000      OSSES GW      SYSTEM =           0.0000

               TOTAL OUT =      848819.6875                 TOTAL OUT =           0.0000

                IN - OUT =         -17.0000                  IN - OUT =           0.0000

     PERCENT DISCREPANCY =          -0.00         PERCENT DISCREPANCY =           0.00



1
  VOLUMETRIC BUDGET FOR ENTIRE MODEL AT END OF TIME STEP   30, STRESS PERIOD  39
  ------------------------------------------------------------------------------

     CUMULATIVE VOLUMES      L**3       RATES FOR THIS TIME STEP      L**3/T
     ------------------                 ------------------------

           IN:                                      IN:
           ---                                      ---
             STORAGE     =    51113196.0000               STORAGE     =           0.2071
       CONSTANT HEAD     =           0.0000         CONSTANT HEAD     =           0.0000
     HEAD DEP BOUNDS     =    28569614.0000       HEAD DEP BOUNDS     =           0.2855
      STREAM LEAKAGE     =  1188952192.0000        STREAM LEAKAGE     =          11.8936
        UZF RECHARGE     =     1340916.1250          UZF RECHARGE     =           0.2773
               GW ET     =           0.0000                 GW ET     =           0.0000
     SURFACE LEAKAGE     =           0.0000       SURFACE LEAKAGE     =           0.0000
           AG WELLS      =           0.0000             AG WELLS      =           0.0000

                TOTAL IN =  1269975936.0000                  TOTAL IN =          12.6635

          OUT:                                     OUT:
          ----                                     ----
             STORAGE     =   146191040.0000               STORAGE     =           2.4285
       CONSTANT HEAD     =           0.0000         CONSTANT HEAD     =           0.0000
     HEAD DEP BOUNDS     =    29233722.0000       HEAD DEP BOUNDS     =           0.2892
      STREAM LEAKAGE     =  1077820160.0000        STREAM LEAKAGE     =           9.9455
        UZF RECHARGE     =           0.0000          UZF RECHARGE     =           0.0000
               GW ET     =    16750928.0000                 GW ET     =           0.0000
     SURFACE LEAKAGE     =           0.0000       SURFACE LEAKAGE     =           0.0000
           AG WELLS      =           0.0000             AG WELLS      =           0.0000

               TOTAL OUT =  1269995904.0000                 TOTAL OUT =          12.6632

                IN - OUT =      -19968.0000                  IN - OUT =       2.3079E-04

     PERCENT DISCREPANCY =          -0.00         PERCENT DISCREPANCY =           0.00






         TIME SUMMARY AT END OF TIME STEP   30 IN STRESS PERIOD   39
                    SECONDS     MINUTES      HOURS       DAYS        YEARS
                    -----------------------------------------------------------
   TIME STEP LENGTH  87667.      1461.1      24.352      1.0147     2.77799E-03
 STRESS PERIOD TIME 2.63000E+06  43833.      730.56      30.440     8.33397E-02
         TOTAL TIME 1.00026E+08 1.66710E+06  27785.      1157.7      3.1696    
1
1
                            STRESS PERIOD NO.   40, LENGTH =   2630000.    
                            -----------------------------------------------

                              NUMBER OF TIME STEPS =    30

                               MULTIPLIER FOR DELT =     1.000

                            INITIAL TIME STEP SIZE =   87666.66    

 REUSING NON-PARAMETER GHB CELLS FROM LAST STRESS PERIOD

      2 GHB CELLS

 REUSING STREAM SEGMENT DATA FROM LAST STRESS PERIOD



            AREAL INFILTRATION RATE
 READING ON UNIT   19 WITH FORMAT: (10F4.0)            

            1           2           3           4           5           6           7           8           9          10
 ........................................................................................................................
   1   1.2000E-09   0.000       0.000       0.000       0.000       0.000       0.000       0.000       0.000       0.000    
   2   2.1000E-09  2.0000E-09  8.0000E-10  8.5000E-09   0.000       0.000       0.000       0.000       0.000       0.000    
   3   5.0000E-10  1.1000E-09  8.8000E-09  5.5000E-09   0.000       0.000       0.000       0.000       0.000       0.000    
   4   8.5000E-09  1.1000E-09  1.1000E-09  1.1000E-09  2.0000E-09   0.000       0.000       0.000       0.000       0.000    
   5   8.5000E-09  1.1000E-09  1.1000E-09  1.1000E-09  1.1000E-09   0.000       0.000       0.000       0.000       0.000    
   6   8.5000E-09  5.2000E-09  2.1000E-09  1.1000E-09  1.5000E-09   0.000       0.000       0.000       0.000       0.000    
   7   8.5000E-09  5.2000E-09  2.1000E-09  1.2000E-09  2.0000E-09   0.000       0.000       0.000       0.000       0.000    
   8   5.0000E-10  5.2000E-09  2.1000E-09  1.2000E-09  5.0000E-09   0.000       0.000       0.000       0.000       0.000    
   9   5.0000E-10  5.2000E-09  2.1000E-09  1.2000E-09  5.0000E-09   0.000       0.000       0.000       0.000       0.000    
  10   5.0000E-10  5.2000E-09  2.1000E-09  1.2000E-09  5.8000E-09   0.000       0.000       0.000       0.000       0.000    
  11   1.0000E-10  1.1000E-09  1.1000E-09  1.2000E-09  5.0000E-09   0.000       0.000       0.000       0.000       0.000    
  12   1.1000E-09  1.1000E-09  1.1000E-09  1.1000E-09  2.0000E-09   0.000       0.000       0.000       0.000       0.000    
  13   1.1000E-09  2.2000E-09  2.2000E-09  2.1000E-09  1.0000E-09   0.000       0.000       0.000       0.000       0.000    
  14   2.0000E-10  5.5000E-09  5.5000E-09  5.2000E-09  1.0000E-09   0.000       0.000       0.000       0.000       0.000    
  15    0.000      8.8000E-09  8.8000E-09   0.000       0.000       0.000       0.000       0.000       0.000       0.000    

                  ET RATE =  5.000000E-10

 USING ET EXTINCTION DEPTH FROM PREVIOUS STRESS PERIOD. CURRENT PERIOD IS:      40

 USING EXTINCTION WATER CONTENT FROM PREVIOUS STRESS PERIOD. CURRENT PERIOD IS:      40

 USING AIR ENTRY PRESSURE FROM PREVIOUS STRESS PERIOD. CURRENT PERIOD IS:      40

 USING ROOT PRESSURE HEAD FROM PREVIOUS STRESS PERIOD. CURRENT PERIOD IS:      40

 USING ROOT ACTIVITY FROM PREVIOUS STRESS PERIOD. CURRENT PERIOD IS:      40

 PROCESSING AG STRESS PERIOD DATA

 READING AG STRESS PERIOD DATA

 READING IRRIGATION SEGMENT

 READING IRRIGATION WELL

 READING SUPPLEMENTAL WELL

 END PROCESSING AG STRESS PERIOD DATA OPTIONS
 
 SOLVING FOR HEAD 
                                                   Max.-Head-Change                         Max.-Flux-Residual
  Residual-Control   Outer-Iter.   Inner-Iter.     Column Row Layer    Maximum-Head-Change  Column Row Layer    Maximum-Flux-Residual          L2-NORM 
          0                 1           2             4   13     1       0.2198346394E-01       4   13    1         0.1268892431E+01      0.2285806340E+01
          0                 2           2             4   13     1       0.2791658352E-02       4   13    1         0.1615369706E+00      0.2652081386E+00
          0                 3           2             4   13     1       0.3537697810E-03       4   13    1         0.2042155981E-01      0.3034034752E-01
          0                 4           1             3   13     1       0.4548282429E-04       3   13    1         0.2613554055E-02      0.3697354694E-02

    ------------------------------------------------
       NWT REQUIRED            4 OUTER ITERATIONS 
       AND A TOTAL OF          7 INNER ITERATIONS.
    ------------------------------------------------

 NO OUTPUT CONTROL FOR STRESS PERIOD   40   TIME STEP    1
 
 SOLVING FOR HEAD 
                                                   Max.-Head-Change                         Max.-Flux-Residual
  Residual-Control   Outer-Iter.   Inner-Iter.     Column Row Layer    Maximum-Head-Change  Column Row Layer    Maximum-Flux-Residual          L2-NORM 
          0                 1           2             2   13     1       0.1967447533E-01       2   13    1         0.1114261445E+01      0.2081608906E+01
          0                 2           2             4   13     1       0.2444550919E-02       4   13    1         0.1414947876E+00      0.2395507499E+00
          0                 3           2             4   13     1       0.3097823451E-03       4   13    1         0.1787455140E-01      0.2701013502E-01
          0                 4           1             3   13     1       0.4042706628E-04       3   13    1         0.2323674110E-02      0.3265999852E-02

    ------------------------------------------------
       NWT REQUIRED            4 OUTER ITERATIONS 
       AND A TOTAL OF          7 INNER ITERATIONS.
    ------------------------------------------------

 NO OUTPUT CONTROL FOR STRESS PERIOD   40   TIME STEP    2
 
 SOLVING FOR HEAD 
                                                   Max.-Head-Change                         Max.-Flux-Residual
  Residual-Control   Outer-Iter.   Inner-Iter.     Column Row Layer    Maximum-Head-Change  Column Row Layer    Maximum-Flux-Residual          L2-NORM 
          0                 1           2             2   13     1       0.1815592456E-01       2   13    1         0.1028391655E+01      0.1902126665E+01
          0                 2           2             4   13     1       0.2142369364E-02       4   13    1         0.1240443764E+00      0.2171997021E+00
          0                 3           2             3   13     1       0.2728497279E-03       4   13    1         0.1570841745E-01      0.2414625110E-01
          0                 4           1             3   13     1       0.3606595405E-04       3   13    1         0.2073231649E-02      0.2899432778E-02

    ------------------------------------------------
       NWT REQUIRED            4 OUTER ITERATIONS 
       AND A TOTAL OF          7 INNER ITERATIONS.
    ------------------------------------------------

 NO OUTPUT CONTROL FOR STRESS PERIOD   40   TIME STEP    3
 
 SOLVING FOR HEAD 
                                                   Max.-Head-Change                         Max.-Flux-Residual
  Residual-Control   Outer-Iter.   Inner-Iter.     Column Row Layer    Maximum-Head-Change  Column Row Layer    Maximum-Flux-Residual          L2-NORM 
          0                 1           2             2   13     1       0.1674847006E-01       2   13    1         0.9487720742E+00      0.1744392064E+01
          0                 2           2             4   13     1       0.1882826403E-02       4   13    1         0.1090583633E+00      0.1977181271E+00
          0                 3           2             3   13     1       0.2442829987E-03       3   13    1         0.1397006977E-01      0.2167386786E-01
          0                 4           1             3   13     1       0.3235374391E-04       3   13    1         0.1860237422E-02      0.2586933568E-02

    ------------------------------------------------
       NWT REQUIRED            4 OUTER ITERATIONS 
       AND A TOTAL OF          7 INNER ITERATIONS.
    ------------------------------------------------

 NO OUTPUT CONTROL FOR STRESS PERIOD   40   TIME STEP    4
 
 SOLVING FOR HEAD 
                                                   Max.-Head-Change                         Max.-Flux-Residual
  Residual-Control   Outer-Iter.   Inner-Iter.     Column Row Layer    Maximum-Head-Change  Column Row Layer    Maximum-Flux-Residual          L2-NORM 
          0                 1           2             2   13     1       0.1544509451E-01       2   13    1         0.8750134401E+00      0.1605795292E+01
          0                 2           2             4   13     1       0.1655732631E-02       4   13    1         0.9594675574E-01      0.1805176507E+00
          0                 3           2             3   13     1       0.2185467019E-03       3   13    1         0.1249784667E-01      0.1947933023E-01
          0                 4           1             3   13     1       0.2901488316E-04       3   13    1         0.1668605169E-02      0.2306657280E-02

    ------------------------------------------------
       NWT REQUIRED            4 OUTER ITERATIONS 
       AND A TOTAL OF          7 INNER ITERATIONS.
    ------------------------------------------------

 NO OUTPUT CONTROL FOR STRESS PERIOD   40   TIME STEP    5
 
 SOLVING FOR HEAD 
                                                   Max.-Head-Change                         Max.-Flux-Residual
  Residual-Control   Outer-Iter.   Inner-Iter.     Column Row Layer    Maximum-Head-Change  Column Row Layer    Maximum-Flux-Residual          L2-NORM 
          0                 1           2             2   13     1       0.1423897016E-01       2   13    1         0.8067370799E+00      0.1483702362E+01
          0                 2           2             3   13     1       0.1472179400E-02       3   13    1         0.8522035675E-01      0.1655480269E+00
          0                 3           2             3   13     1       0.1953492915E-03       3   13    1         0.1117052489E-01      0.1753735349E-01
          0                 4           1             3   13     1       0.2592488153E-04       3   13    1         0.1491193150E-02      0.2052690085E-02

    ------------------------------------------------
       NWT REQUIRED            4 OUTER ITERATIONS 
       AND A TOTAL OF          7 INNER ITERATIONS.
    ------------------------------------------------

 NO OUTPUT CONTROL FOR STRESS PERIOD   40   TIME STEP    6
 
 SOLVING FOR HEAD 
                                                   Max.-Head-Change                         Max.-Flux-Residual
  Residual-Control   Outer-Iter.   Inner-Iter.     Column Row Layer    Maximum-Head-Change  Column Row Layer    Maximum-Flux-Residual          L2-NORM 
          0                 1           2             2   13     1       0.1312375058E-01       2   13    1         0.7435889885E+00      0.1376095326E+01
          0                 2           2             3   13     1       0.1313668622E-02       3   13    1         0.7608900770E-01      0.1521674015E+00
          0                 3           2             3   13     1       0.1746763057E-03       3   13    1         0.9987601545E-02      0.1582517088E-01
          0                 4           1             3   13     1       0.2323715424E-04       3   13    1         0.1336838580E-02      0.1833267896E-02

    ------------------------------------------------
       NWT REQUIRED            4 OUTER ITERATIONS 
       AND A TOTAL OF          7 INNER ITERATIONS.
    ------------------------------------------------

 NO OUTPUT CONTROL FOR STRESS PERIOD   40   TIME STEP    7
 
 SOLVING FOR HEAD 
                                                   Max.-Head-Change                         Max.-Flux-Residual
  Residual-Control   Outer-Iter.   Inner-Iter.     Column Row Layer    Maximum-Head-Change  Column Row Layer    Maximum-Flux-Residual          L2-NORM 
          0                 1           2             2   13     1       0.1209304688E-01       2   13    1         0.6852114321E+00      0.1281200419E+01
          0                 2           2             3   13     1       0.1175835731E-02       3   13    1         0.6814472229E-01      0.1405837770E+00
          0                 3           2             3   13     1       0.1561772921E-03       3   13    1         0.8928957783E-02      0.1431525868E-01
          0                 4           1             3   13     1       0.2078507508E-04       3   13    1         0.1196025102E-02      0.1633142462E-02

    ------------------------------------------------
       NWT REQUIRED            4 OUTER ITERATIONS 
       AND A TOTAL OF          7 INNER ITERATIONS.
    ------------------------------------------------

 NO OUTPUT CONTROL FOR STRESS PERIOD   40   TIME STEP    8
 
 SOLVING FOR HEAD 
                                                   Max.-Head-Change                         Max.-Flux-Residual
  Residual-Control   Outer-Iter.   Inner-Iter.     Column Row Layer    Maximum-Head-Change  Column Row Layer    Maximum-Flux-Residual          L2-NORM 
          0                 1           2             2   13     1       0.1114116385E-01       2   13    1         0.6312857534E+00      0.1197453966E+01
          0                 2           2             3   13     1       0.1049801682E-02       3   13    1         0.6087761646E-01      0.1302352465E+00
          0                 3           2             3   13     1       0.1393462719E-03       3   13    1         0.7965669332E-02      0.1296316438E-01
          0                 4           1             3   13     1       0.1851115163E-04       3   13    1         0.1065371045E-02      0.1451222810E-02

    ------------------------------------------------
       NWT REQUIRED            4 OUTER ITERATIONS 
       AND A TOTAL OF          7 INNER ITERATIONS.
    ------------------------------------------------

 NO OUTPUT CONTROL FOR STRESS PERIOD   40   TIME STEP    9
 
 SOLVING FOR HEAD 
                                                   Max.-Head-Change                         Max.-Flux-Residual
  Residual-Control   Outer-Iter.   Inner-Iter.     Column Row Layer    Maximum-Head-Change  Column Row Layer    Maximum-Flux-Residual          L2-NORM 
          0                 1           2             2   13     1       0.1026248837E-01       2   13    1         0.5814969221E+00      0.1123496775E+01
          0                 2           2             2   13     1      -0.9480417474E-03       2   13    1        -0.5599166532E-01      0.1212231557E+00
          0                 3           2             3   13     1       0.1248541805E-03       3   13    1         0.7136198868E-02      0.1181535693E-01
          0                 4           1             3   13     1       0.1660959576E-04       3   13    1         0.9561020725E-03      0.1299812003E-02

    ------------------------------------------------
       NWT REQUIRED            4 OUTER ITERATIONS 
       AND A TOTAL OF          7 INNER ITERATIONS.
    ------------------------------------------------

 NO OUTPUT CONTROL FOR STRESS PERIOD   40   TIME STEP   10
 
 SOLVING FOR HEAD 
                                                   Max.-Head-Change                         Max.-Flux-Residual
  Residual-Control   Outer-Iter.   Inner-Iter.     Column Row Layer    Maximum-Head-Change  Column Row Layer    Maximum-Flux-Residual          L2-NORM 
          0                 1           2             2   13     1       0.9451812175E-02       2   13    1         0.5355526393E+00      0.1058119283E+01
          0                 2           2             2   13     1      -0.8743252336E-03       2   13    1        -0.5161591350E-01      0.1132936723E+00
          0                 3           2             3   13     1       0.1116412694E-03       3   13    1         0.6379939247E-02      0.1078438196E-01
          0                 4           1             3   13     1       0.1484570739E-04       3   13    1         0.8547169036E-03      0.1161083718E-02

    ------------------------------------------------
       NWT REQUIRED            4 OUTER ITERATIONS 
       AND A TOTAL OF          7 INNER ITERATIONS.
    ------------------------------------------------

 NO OUTPUT CONTROL FOR STRESS PERIOD   40   TIME STEP   11
 
 SOLVING FOR HEAD 
                                                   Max.-Head-Change                         Max.-Flux-Residual
  Residual-Control   Outer-Iter.   Inner-Iter.     Column Row Layer    Maximum-Head-Change  Column Row Layer    Maximum-Flux-Residual          L2-NORM 
          0                 1           2             2   13     1       0.8704213125E-02       2   13    1         0.4931761616E+00      0.1000269639E+01
          0                 2           2             2   13     1      -0.8061529090E-03       2   13    1        -0.4757062602E-01      0.1062715853E+00
          0                 3           1             3   13     1       0.9971156168E-04       3   13    1         0.5697052728E-02      0.9872497350E-02

    ------------------------------------------------
       NWT REQUIRED            3 OUTER ITERATIONS 
       AND A TOTAL OF          5 INNER ITERATIONS.
    ------------------------------------------------

 NO OUTPUT CONTROL FOR STRESS PERIOD   40   TIME STEP   12
 
 SOLVING FOR HEAD 
                                                   Max.-Head-Change                         Max.-Flux-Residual
  Residual-Control   Outer-Iter.   Inner-Iter.     Column Row Layer    Maximum-Head-Change  Column Row Layer    Maximum-Flux-Residual          L2-NORM 
          0                 1           2             2   13     1       0.8014657870E-02       2   13    1         0.4540831208E+00      0.9490550649E+00
          0                 2           2             2   13     1      -0.7431316803E-03       2   13    1        -0.4383296863E-01      0.1001065100E+00
          0                 3           1             3   13     1       0.8911669393E-04       3   13    1         0.5090537852E-02      0.9078488257E-02

    ------------------------------------------------
       NWT REQUIRED            3 OUTER ITERATIONS 
       AND A TOTAL OF          5 INNER ITERATIONS.
    ------------------------------------------------

 NO OUTPUT CONTROL FOR STRESS PERIOD   40   TIME STEP   13
 
 SOLVING FOR HEAD 
                                                   Max.-Head-Change                         Max.-Flux-Residual
  Residual-Control   Outer-Iter.   Inner-Iter.     Column Row Layer    Maximum-Head-Change  Column Row Layer    Maximum-Flux-Residual          L2-NORM 
          0                 1           2             2   13     1       0.7379309687E-02       2   13    1         0.4180587312E+00      0.9036205464E+00
          0                 2           2             2   13     1      -0.6849355621E-03       2   13    1        -0.4038343981E-01      0.9472073348E-01
          0                 3           1             3   13     1       0.7999639099E-04       3   13    1         0.4568454207E-02      0.8404826989E-02

    ------------------------------------------------
       NWT REQUIRED            3 OUTER ITERATIONS 
       AND A TOTAL OF          5 INNER ITERATIONS.
    ------------------------------------------------

 NO OUTPUT CONTROL FOR STRESS PERIOD   40   TIME STEP   14
 
 SOLVING FOR HEAD 
                                                   Max.-Head-Change                         Max.-Flux-Residual
  Residual-Control   Outer-Iter.   Inner-Iter.     Column Row Layer    Maximum-Head-Change  Column Row Layer    Maximum-Flux-Residual          L2-NORM 
          0                 1           2             2   13     1       0.6794079928E-02       2   13    1         0.3848725726E+00      0.8632456677E+00
          0                 2           2             2   13     1      -0.6312047079E-03       2   13    1        -0.3720035288E-01      0.8996824470E-01
          0                 3           1             3   13     1       0.7172264414E-04       3   13    1         0.4094906230E-02      0.7803109475E-02

    ------------------------------------------------
       NWT REQUIRED            3 OUTER ITERATIONS 
       AND A TOTAL OF          5 INNER ITERATIONS.
    ------------------------------------------------

 NO OUTPUT CONTROL FOR STRESS PERIOD   40   TIME STEP   15
 
 SOLVING FOR HEAD 
                                                   Max.-Head-Change                         Max.-Flux-Residual
  Residual-Control   Outer-Iter.   Inner-Iter.     Column Row Layer    Maximum-Head-Change  Column Row Layer    Maximum-Flux-Residual          L2-NORM 
          0                 1           2             1   13     1       0.6302601375E-02       2   13    1         0.3543142266E+00      0.8273300292E+00
          0                 2           2             1   13     1      -0.5956034181E-03       2   13    1        -0.3426517281E-01      0.8574989589E-01
          0                 3           1             3   13     1       0.6420274523E-04       3   13    1         0.3664416958E-02      0.7272994138E-02

    ------------------------------------------------
       NWT REQUIRED            3 OUTER ITERATIONS 
       AND A TOTAL OF          5 INNER ITERATIONS.
    ------------------------------------------------

 NO OUTPUT CONTROL FOR STRESS PERIOD   40   TIME STEP   16
 
 SOLVING FOR HEAD 
                                                   Max.-Head-Change                         Max.-Flux-Residual
  Residual-Control   Outer-Iter.   Inner-Iter.     Column Row Layer    Maximum-Head-Change  Column Row Layer    Maximum-Flux-Residual          L2-NORM 
          0                 1           2             1   13     1       0.6001348913E-02       1   13    1         0.3278828135E+00      0.7953229451E+00
          0                 2           2             1   13     1      -0.5677930204E-03       1   13    1        -0.3189445601E-01      0.8202755233E-01
          0                 3           1             3   13     1       0.5752713355E-04       3   13    1         0.3282291837E-02      0.6811611025E-02

    ------------------------------------------------
       NWT REQUIRED            3 OUTER ITERATIONS 
       AND A TOTAL OF          5 INNER ITERATIONS.
    ------------------------------------------------

 NO OUTPUT CONTROL FOR STRESS PERIOD   40   TIME STEP   17
 
 SOLVING FOR HEAD 
                                                   Max.-Head-Change                         Max.-Flux-Residual
  Residual-Control   Outer-Iter.   Inner-Iter.     Column Row Layer    Maximum-Head-Change  Column Row Layer    Maximum-Flux-Residual          L2-NORM 
          0                 1           2             1   13     1       0.5712648373E-02       1   13    1         0.3121737437E+00      0.7667388928E+00
          0                 2           2             1   13     1      -0.5410474297E-03       1   13    1        -0.3039825778E-01      0.7873469792E-01
          0                 3           1             3   13     1       0.5161062839E-04       3   13    1         0.2943642688E-02      0.6411180944E-02

    ------------------------------------------------
       NWT REQUIRED            3 OUTER ITERATIONS 
       AND A TOTAL OF          5 INNER ITERATIONS.
    ------------------------------------------------

 NO OUTPUT CONTROL FOR STRESS PERIOD   40   TIME STEP   18
 
 SOLVING FOR HEAD 
                                                   Max.-Head-Change                         Max.-Flux-Residual
  Residual-Control   Outer-Iter.   Inner-Iter.     Column Row Layer    Maximum-Head-Change  Column Row Layer    Maximum-Flux-Residual          L2-NORM 
          0                 1           2             2    2     1       0.5497372022E-02       1   13    1         0.2971223743E+00      0.7411819375E+00
          0                 2           2             2    2     1      -0.5347458274E-03       1   13    1        -0.2896159035E-01      0.7582180383E-01
          0                 3           1             3   13     1       0.4633313968E-04       3   13    1         0.2641570418E-02      0.6063104126E-02

    ------------------------------------------------
       NWT REQUIRED            3 OUTER ITERATIONS 
       AND A TOTAL OF          5 INNER ITERATIONS.
    ------------------------------------------------

 NO OUTPUT CONTROL FOR STRESS PERIOD   40   TIME STEP   19
 
 SOLVING FOR HEAD 
                                                   Max.-Head-Change                         Max.-Flux-Residual
  Residual-Control   Outer-Iter.   Inner-Iter.     Column Row Layer    Maximum-Head-Change  Column Row Layer    Maximum-Flux-Residual          L2-NORM 
          0                 1           2             2    2     1       0.5462060301E-02       2    2    1         0.2852228059E+00      0.7182715181E+00
          0                 2           2             2    2     1      -0.5313109342E-03       2    2    1        -0.2852237402E-01      0.7323534233E-01
          0                 3           1             3   13     1       0.4164775011E-04       3   13    1         0.2373418806E-02      0.5760215173E-02

    ------------------------------------------------
       NWT REQUIRED            3 OUTER ITERATIONS 
       AND A TOTAL OF          5 INNER ITERATIONS.
    ------------------------------------------------

 NO OUTPUT CONTROL FOR STRESS PERIOD   40   TIME STEP   20
 
 SOLVING FOR HEAD 
                                                   Max.-Head-Change                         Max.-Flux-Residual
  Residual-Control   Outer-Iter.   Inner-Iter.     Column Row Layer    Maximum-Head-Change  Column Row Layer    Maximum-Flux-Residual          L2-NORM 
          0                 1           2             2    2     1       0.5427266823E-02       2    2    1         0.2833919343E+00      0.6976957773E+00
          0                 2           2             2    2     1      -0.5279264524E-03       2    2    1        -0.2833928520E-01      0.7093451319E-01
          0                 3           1             3   13     1       0.3751763068E-04       3   13    1         0.2137105060E-02      0.5497317756E-02

    ------------------------------------------------
       NWT REQUIRED            3 OUTER ITERATIONS 
       AND A TOTAL OF          5 INNER ITERATIONS.
    ------------------------------------------------

 NO OUTPUT CONTROL FOR STRESS PERIOD   40   TIME STEP   21
 
 SOLVING FOR HEAD 
                                                   Max.-Head-Change                         Max.-Flux-Residual
  Residual-Control   Outer-Iter.   Inner-Iter.     Column Row Layer    Maximum-Head-Change  Column Row Layer    Maximum-Flux-Residual          L2-NORM 
          0                 1           2             2    2     1       0.5392895016E-02       2    2    1         0.2815833329E+00      0.6791774606E+00
          0                 2           2             2    2     1      -0.5245829885E-03       2    2    1        -0.2815842346E-01      0.6888389491E-01
          0                 3           1             2    2     1       0.3572214300E-04       2    2    1         0.1971089626E-02      0.5267327428E-02

    ------------------------------------------------
       NWT REQUIRED            3 OUTER ITERATIONS 
       AND A TOTAL OF          5 INNER ITERATIONS.
    ------------------------------------------------

 NO OUTPUT CONTROL FOR STRESS PERIOD   40   TIME STEP   22
 
 SOLVING FOR HEAD 
                                                   Max.-Head-Change                         Max.-Flux-Residual
  Residual-Control   Outer-Iter.   Inner-Iter.     Column Row Layer    Maximum-Head-Change  Column Row Layer    Maximum-Flux-Residual          L2-NORM 
          0                 1           2             2    2     1       0.5359113551E-02       2    2    1         0.2798057948E+00      0.6624685785E+00
          0                 2           2             2    2     1      -0.5212969490E-03       2    2    1        -0.2798066805E-01      0.6704930670E-01
          0                 3           1             2    2     1       0.3549837670E-04       2    2    1         0.1958646767E-02      0.5066662942E-02

    ------------------------------------------------
       NWT REQUIRED            3 OUTER ITERATIONS 
       AND A TOTAL OF          5 INNER ITERATIONS.
    ------------------------------------------------

 NO OUTPUT CONTROL FOR STRESS PERIOD   40   TIME STEP   23
 
 SOLVING FOR HEAD 
                                                   Max.-Head-Change                         Max.-Flux-Residual
  Residual-Control   Outer-Iter.   Inner-Iter.     Column Row Layer    Maximum-Head-Change  Column Row Layer    Maximum-Flux-Residual          L2-NORM 
          0                 1           2             2    2     1       0.5325737838E-02       2    2    1         0.2780496648E+00      0.6473537458E+00
          0                 2           2             2    2     1      -0.5180503794E-03       2    2    1        -0.2780505354E-01      0.6541030667E-01
          0                 3           1             2    2     1       0.3527729760E-04       2    2    1         0.1946353767E-02      0.4894637341E-02

    ------------------------------------------------
       NWT REQUIRED            3 OUTER ITERATIONS 
       AND A TOTAL OF          5 INNER ITERATIONS.
    ------------------------------------------------

 NO OUTPUT CONTROL FOR STRESS PERIOD   40   TIME STEP   24
 
 SOLVING FOR HEAD 
                                                   Max.-Head-Change                         Max.-Flux-Residual
  Residual-Control   Outer-Iter.   Inner-Iter.     Column Row Layer    Maximum-Head-Change  Column Row Layer    Maximum-Flux-Residual          L2-NORM 
          0                 1           2             2    2     1       0.5292760095E-02       2    2    1         0.2763145723E+00      0.6336526512E+00
          0                 2           2             2    2     1      -0.5148425211E-03       2    2    1        -0.2763154275E-01      0.6393588917E-01
          0                 3           1             2    2     1       0.3505885456E-04       2    2    1         0.1934208020E-02      0.4744294156E-02

    ------------------------------------------------
       NWT REQUIRED            3 OUTER ITERATIONS 
       AND A TOTAL OF          5 INNER ITERATIONS.
    ------------------------------------------------

 NO OUTPUT CONTROL FOR STRESS PERIOD   40   TIME STEP   25
 
 SOLVING FOR HEAD 
                                                   Max.-Head-Change                         Max.-Flux-Residual
  Residual-Control   Outer-Iter.   Inner-Iter.     Column Row Layer    Maximum-Head-Change  Column Row Layer    Maximum-Flux-Residual          L2-NORM 
          0                 1           2             2    2     1       0.5260349747E-02       2    2    1         0.2746093152E+00      0.6211956796E+00
          0                 2           2             2    2     1      -0.5116898558E-03       2    2    1        -0.2746101558E-01      0.6259801327E-01
          0                 3           1             2    2     1       0.3484416989E-04       2    2    1         0.1922271124E-02      0.4608340351E-02

    ------------------------------------------------
       NWT REQUIRED            3 OUTER ITERATIONS 
       AND A TOTAL OF          5 INNER ITERATIONS.
    ------------------------------------------------

 NO OUTPUT CONTROL FOR STRESS PERIOD   40   TIME STEP   26
 
 SOLVING FOR HEAD 
                                                   Max.-Head-Change                         Max.-Flux-Residual
  Residual-Control   Outer-Iter.   Inner-Iter.     Column Row Layer    Maximum-Head-Change  Column Row Layer    Maximum-Flux-Residual          L2-NORM 
          0                 1           2             2    2     1       0.5228322251E-02       2    2    1         0.2729242754E+00      0.6098494891E+00
          0                 2           2             2    2     1      -0.5085744316E-03       2    2    1        -0.2729251015E-01      0.6138816670E-01
          0                 3           1             2    2     1       0.3463202141E-04       2    2    1         0.1910475751E-02      0.4487973257E-02

    ------------------------------------------------
       NWT REQUIRED            3 OUTER ITERATIONS 
       AND A TOTAL OF          5 INNER ITERATIONS.
    ------------------------------------------------

 NO OUTPUT CONTROL FOR STRESS PERIOD   40   TIME STEP   27
 
 SOLVING FOR HEAD 
                                                   Max.-Head-Change                         Max.-Flux-Residual
  Residual-Control   Outer-Iter.   Inner-Iter.     Column Row Layer    Maximum-Head-Change  Column Row Layer    Maximum-Flux-Residual          L2-NORM 
          0                 1           2             2    2     1       0.5196758208E-02       2    2    1         0.2712636869E+00      0.5994819342E+00
          0                 2           2             2    2     1      -0.5055040902E-03       2    2    1        -0.2712644991E-01      0.6028938718E-01
          0                 3           1             2    2     1       0.3442294259E-04       2    2    1         0.1898851544E-02      0.4381851162E-02

    ------------------------------------------------
       NWT REQUIRED            3 OUTER ITERATIONS 
       AND A TOTAL OF          5 INNER ITERATIONS.
    ------------------------------------------------

 NO OUTPUT CONTROL FOR STRESS PERIOD   40   TIME STEP   28
 
 SOLVING FOR HEAD 
                                                   Max.-Head-Change                         Max.-Flux-Residual
  Residual-Control   Outer-Iter.   Inner-Iter.     Column Row Layer    Maximum-Head-Change  Column Row Layer    Maximum-Flux-Residual          L2-NORM 
          0                 1           2             2    2     1       0.5165650764E-02       2    2    1         0.2696271278E+00      0.5899926433E+00
          0                 2           2             2    2     1      -0.5024781634E-03       2    2    1        -0.2696279263E-01      0.5928976963E-01
          0                 3           1             2    2     1       0.3421688821E-04       2    2    1         0.1887395543E-02      0.4287337222E-02

    ------------------------------------------------
       NWT REQUIRED            3 OUTER ITERATIONS 
       AND A TOTAL OF          5 INNER ITERATIONS.
    ------------------------------------------------

 NO OUTPUT CONTROL FOR STRESS PERIOD   40   TIME STEP   29
 
 SOLVING FOR HEAD 
                                                   Max.-Head-Change                         Max.-Flux-Residual
  Residual-Control   Outer-Iter.   Inner-Iter.     Column Row Layer    Maximum-Head-Change  Column Row Layer    Maximum-Flux-Residual          L2-NORM 
          0                 1           2             2    2     1       0.5134904828E-02       2    2    1         0.2680096416E+00      0.5812765076E+00
          0                 2           2             2    2     1      -0.4994874019E-03       2    2    1        -0.2680104267E-01      0.5837592429E-01
          0                 3           1             2    2     1       0.3401322873E-04       2    2    1         0.1876073048E-02      0.4203697839E-02

    ------------------------------------------------
       NWT REQUIRED            3 OUTER ITERATIONS 
       AND A TOTAL OF          5 INNER ITERATIONS.
    ------------------------------------------------

 NO OUTPUT CONTROL FOR STRESS PERIOD   40   TIME STEP   30



 STREAM LISTING     PERIOD     40   STEP       30

 LAYER ROW COL. STREAM  RCH.  FLOW INTO     FLOW TO   FLOW OUT OF   OVRLND.     DIRECT     STREAM       STREAM     STREAM     STREAM   STREAMBED  STREAMBED
                SEG.NO.  NO.  STRM. RCH.    AQUIFER    STRM. RCH.    RUNOFF     PRECIP       ET          HEAD       DEPTH      WIDTH   CONDCTNC.   GRADIENT

   1    1    1     1     1    7.3498E+01  4.1744E-01   7.3080E+01  0.000E+00  0.000E+00  0.000E+00  1.09473E+03  1.681E+00  1.982E+01  8.917E-02  1.560E+00
   1    2    2     1     2    7.3080E+01  6.4665E-01   7.2434E+01  0.000E+00  0.000E+00  0.000E+00  1.08973E+03  1.675E+00  1.976E+01  1.383E-01  1.558E+00
   1    3    3     1     3    7.2434E+01  5.5165E-01   7.1882E+01  0.000E+00  0.000E+00  0.000E+00  1.08409E+03  1.669E+00  1.969E+01  1.182E-01  1.556E+00
   1    3    4     1     4    7.1882E+01  5.0813E-01   7.1374E+01  0.000E+00  0.000E+00  0.000E+00  1.07907E+03  1.663E+00  1.963E+01  1.090E-01  1.554E+00
   1    4    5     2     1    6.9374E+01  4.0746E-01   6.8966E+01  0.000E+00  0.000E+00  0.000E+00  1.07416E+03  2.224E+00  1.200E+01  7.800E-02  1.741E+00
   1    5    6     2     2    6.8966E+01  3.1301E-01   6.8653E+01  0.000E+00  0.000E+00  0.000E+00  1.06873E+03  2.217E+00  1.200E+01  6.000E-02  1.739E+00
   1    6    6     2     3    6.8653E+01  3.1265E-01   6.8341E+01  0.000E+00  0.000E+00  0.000E+00  1.06400E+03  2.211E+00  1.200E+01  6.000E-02  1.737E+00
   1    7    6     2     4    6.8341E+01  3.1228E-01   6.8028E+01  0.000E+00  0.000E+00  0.000E+00  1.05928E+03  2.205E+00  1.200E+01  6.000E-02  1.735E+00
   1    8    6     2     5    6.8028E+01  3.1192E-01   6.7717E+01  0.000E+00  0.000E+00  0.000E+00  1.05456E+03  2.199E+00  1.200E+01  6.000E-02  1.733E+00
   1    3    5     3     1    2.0000E+00  2.8252E-01   1.7175E+00  0.000E+00  0.000E+00  0.000E+00  1.07555E+03  1.909E+00  9.636E+00  7.227E-02  1.955E+00
   1    3    6     3     2    1.7175E+00  2.4905E-01   1.4684E+00  0.000E+00  0.000E+00  0.000E+00  1.07264E+03  1.727E+00  8.909E+00  6.682E-02  1.864E+00
   1    3    7     3     3    1.4684E+00  1.9718E-01   1.2712E+00  0.000E+00  0.000E+00  0.000E+00  1.06987E+03  1.555E+00  8.218E+00  5.547E-02  1.777E+00
   1    4    8     3     4    1.2712E+00  2.2567E-01   1.0456E+00  0.000E+00  0.000E+00  0.000E+00  1.06682E+03  1.364E+00  7.455E+00  6.709E-02  1.682E+00
   1    5    8     3     5    1.0456E+00  1.5790E-01   8.8768E-01  0.000E+00  0.000E+00  0.000E+00  1.06362E+03  1.164E+00  6.655E+00  4.991E-02  1.582E+00
   1    6    8     3     6    8.8768E-01  5.5980E-02   8.3170E-01  0.000E+00  0.000E+00  0.000E+00  1.06158E+03  1.036E+00  6.145E+00  1.844E-02  1.518E+00
   1    5   10     4     1    1.0000E+01  9.0919E-02   9.9091E+00  0.000E+00  0.000E+00  0.000E+00  1.07836E+03  6.368E-01  1.000E+01  2.500E-02  1.212E+00
   1    5    9     4     2    9.9091E+00  1.8158E-01   9.7275E+00  0.000E+00  0.000E+00  0.000E+00  1.07154E+03  6.315E-01  1.000E+01  5.000E-02  1.211E+00
   1    6    8     4     3    9.7275E+00  1.2689E-01   9.6006E+00  0.000E+00  0.000E+00  0.000E+00  1.06381E+03  6.256E-01  1.000E+01  3.500E-02  1.209E+00
   1    6    8     5     1    1.0432E+01  2.2686E-01   1.0205E+01  0.000E+00  0.000E+00  0.000E+00  1.05868E+03  6.790E-01  1.542E+01  6.166E-02  1.226E+00
   1    7    7     5     2    1.0205E+01  2.7894E-01   9.9265E+00  0.000E+00  0.000E+00  0.000E+00  1.05417E+03  6.732E-01  1.519E+01  7.594E-02  1.224E+00
   1    8    7     5     3    9.9265E+00  1.9221E-01   9.7343E+00  0.000E+00  0.000E+00  0.000E+00  1.04992E+03  6.676E-01  1.497E+01  5.241E-02  1.223E+00
   1    8    6     5     4    9.7343E+00  1.3577E-01   9.5985E+00  0.000E+00  0.000E+00  0.000E+00  1.04691E+03  6.637E-01  1.482E+01  3.706E-02  1.221E+00
   1    9    6     6     1    7.7315E+01  3.2406E-01   7.6991E+01  0.000E+00  0.000E+00  0.000E+00  1.04513E+03  2.401E+00  1.200E+01  6.000E-02  1.800E+00
   1   10    7     6     2    7.6991E+01  3.2369E-01   7.6667E+01  0.000E+00  0.000E+00  0.000E+00  1.04058E+03  2.395E+00  1.200E+01  6.000E-02  1.798E+00
   1   11    7     6     3    7.6667E+01  3.2333E-01   7.6344E+01  0.000E+00  0.000E+00  0.000E+00  1.03603E+03  2.389E+00  1.200E+01  6.000E-02  1.796E+00
   1   12    7     6     4    7.6344E+01  3.2297E-01   7.6021E+01  0.000E+00  0.000E+00  0.000E+00  1.03147E+03  2.383E+00  1.200E+01  6.000E-02  1.794E+00
   1   13    7     6     5    7.6021E+01  2.6373E-02   7.5995E+01  0.000E+00  0.000E+00  0.000E+00  1.02829E+03  2.379E+00  1.200E+01  2.400E-02  3.663E-01
   1   14    9     7     1    1.5000E+02  1.3321E+00   1.4867E+02  0.000E+00  0.000E+00  0.000E+00  1.03987E+03  2.288E+00  5.529E+01  5.593E-01  7.939E-01
   1   13    8     7     2    1.4867E+02  1.8078E+00   1.4686E+02  0.000E+00  0.000E+00  0.000E+00  1.03478E+03  2.279E+00  5.526E+01  6.148E-01  9.802E-01
   1   13    7     7     3    1.4686E+02  1.3964E+00   1.4546E+02  0.000E+00  0.000E+00  0.000E+00  1.02969E+03  2.271E+00  5.522E+01  5.585E-01  8.335E-01
   1   13    6     8     1    2.2146E+02  1.0524E+00   2.2041E+02  0.000E+00  0.000E+00  0.000E+00  1.02513E+03  3.257E+00  4.723E+01  4.813E-01  7.289E-01
   1   13    5     8     2    2.2041E+02  2.2485E-01   2.2018E+02  0.000E+00  0.000E+00  0.000E+00  1.01888E+03  3.254E+00  4.718E+01  4.807E-01  1.559E-01
   1   13    4     8     3    2.2018E+02 -2.4521E+00   2.2263E+02  0.000E+00  0.000E+00  0.000E+00  1.01263E+03  3.260E+00  4.727E+01  4.817E+00 -1.697E-01
   1   13    3     8     4    2.2263E+02 -3.6432E+00   2.2628E+02  0.000E+00  0.000E+00  0.000E+00  1.00640E+03  3.276E+00  4.751E+01  4.841E+00 -2.508E-01
   1   13    2     8     5    2.2628E+02 -2.4388E+00   2.2872E+02  0.000E+00  0.000E+00  0.000E+00  1.00017E+03  3.293E+00  4.775E+01  4.866E+00 -1.671E-01
   1   13    1     8     6    2.2872E+02 -1.8206E+00   2.3054E+02  0.000E+00  0.000E+00  0.000E+00  9.95180E+02  3.305E+00  4.792E+01  2.930E+00 -2.071E-01
   1    8    6     9     1    0.0000E+00  0.0000E+00   0.0000E+00  0.000E+00  0.000E+00  0.000E+00  1.07875E+03  0.000E+00  4.000E+00  0.000E+00  1.000E+00
   1    8    5     9     2    0.0000E+00  0.0000E+00   0.0000E+00  0.000E+00  0.000E+00  0.000E+00  1.07825E+03  0.000E+00  4.000E+00  0.000E+00  1.000E+00





UNSATURATED ZONE PACKAGE VOLUMETRIC BUDGET FOR  TIME STEP    30 STRESS PERIOD   40
  ------------------------------------------------------------------------------



     CUMULATIVE VOLUMES      L**3       RATES FOR THIS TIME STEP      L**3/T
     ------------------                 ------------------------

           IN:                                      IN:
           ---                                      ---
        INFILTRATION =   452999301.4265          INFILTRATION =           4.4075

          OUT:                                     OUT:
          ----                                     ----
              UZF ET =   310789172.7932                UZF ET =           0.7250
        UZF RECHARGE =     2039564.9653          UZF RECHARGE =           0.1099

            IN - OUT =   140170563.6680              IN - OUT =           3.5726

          STORAGE:                                 STORAGE:
          --------                                 --------
      STORAGE CHANGE =   140172396.0493        STORAGE CHANGE =           3.5726

 PERCENT DISCREPANCY IS DIFFERENCE BETWEEN IN-OUT MINUS CHANGE IN STORAGE
 DIVIDED BY THE AVERAGE OF IN AND OUT TIMES 100

 PERCENT DISCREPANCY =          -0.00     PERCENT DISCREPANCY =          -0.00






1
  VOLUMETRIC BUDGET FOR ENTIRE MODEL AT END OF TIME STEP   30, STRESS PERIOD  40
  ------------------------------------------------------------------------------

     CUMULATIVE VOLUMES      L**3       RATES FOR THIS TIME STEP      L**3/T
     ------------------                 ------------------------

           IN:                                      IN:
           ---                                      ---
               AG WELLS  =           0.0000                 AG WELLS  =           0.0000
        DIVERSION SEGMEN =      848802.5000          DIVERSION SEGMEN =           0.0000
    TS         GW IRRIGA =           0.0000      TS         GW IRRIGA =           0.0000
    TION         SW IRRI =           0.0000      TION         SW IRRI =           0.0000
    GATION      SYSTEM L =           0.0000      GATION      SYSTEM L =           0.0000
    OSSES GW      SYSTEM =           0.1856      OSSES GW      SYSTEM =           0.0000

                TOTAL IN =      848802.6875                  TOTAL IN =           0.0000

          OUT:                                     OUT:
          ----                                     ----
               AG WELLS  =           0.0000                 AG WELLS  =           0.0000
        DIVERSION SEGMEN =           0.0000          DIVERSION SEGMEN =           0.0000
    TS         GW IRRIGA =           0.0000      TS         GW IRRIGA =           0.0000
    TION         SW IRRI =      848819.6875      TION         SW IRRI =           0.0000
    GATION      SYSTEM L =           0.0000      GATION      SYSTEM L =           0.0000
    OSSES GW      SYSTEM =           0.0000      OSSES GW      SYSTEM =           0.0000

               TOTAL OUT =      848819.6875                 TOTAL OUT =           0.0000

                IN - OUT =         -17.0000                  IN - OUT =           0.0000

     PERCENT DISCREPANCY =          -0.00         PERCENT DISCREPANCY =           0.00



1
  VOLUMETRIC BUDGET FOR ENTIRE MODEL AT END OF TIME STEP   30, STRESS PERIOD  40
  ------------------------------------------------------------------------------

     CUMULATIVE VOLUMES      L**3       RATES FOR THIS TIME STEP      L**3/T
     ------------------                 ------------------------

           IN:                                      IN:
           ---                                      ---
             STORAGE     =    51297960.0000               STORAGE     =       4.9955E-02
       CONSTANT HEAD     =           0.0000         CONSTANT HEAD     =           0.0000
     HEAD DEP BOUNDS     =    29320514.0000       HEAD DEP BOUNDS     =           0.2855
      STREAM LEAKAGE     =  1224093824.0000        STREAM LEAKAGE     =          13.3167
        UZF RECHARGE     =     2039564.8750          UZF RECHARGE     =           0.1099
               GW ET     =           0.0000                 GW ET     =           0.0000
     SURFACE LEAKAGE     =           0.0000       SURFACE LEAKAGE     =           0.0000
           AG WELLS      =           0.0000             AG WELLS      =           0.0000

                TOTAL IN =  1306751872.0000                  TOTAL IN =          13.7621

          OUT:                                     OUT:
          ----                                     ----
             STORAGE     =   157525008.0000               STORAGE     =           3.1116
       CONSTANT HEAD     =           0.0000         CONSTANT HEAD     =           0.0000
     HEAD DEP BOUNDS     =    30006372.0000       HEAD DEP BOUNDS     =           0.2964
      STREAM LEAKAGE     =  1102488960.0000        STREAM LEAKAGE     =          10.3546
        UZF RECHARGE     =           0.0000          UZF RECHARGE     =           0.0000
               GW ET     =    16750928.0000                 GW ET     =       3.0920E-12
     SURFACE LEAKAGE     =           0.0000       SURFACE LEAKAGE     =           0.0000
           AG WELLS      =           0.0000             AG WELLS      =           0.0000

               TOTAL OUT =  1306771328.0000                 TOTAL OUT =          13.7627

                IN - OUT =      -19456.0000                  IN - OUT =      -6.1893E-04

     PERCENT DISCREPANCY =          -0.00         PERCENT DISCREPANCY =          -0.00






         TIME SUMMARY AT END OF TIME STEP   30 IN STRESS PERIOD   40
                    SECONDS     MINUTES      HOURS       DAYS        YEARS
                    -----------------------------------------------------------
   TIME STEP LENGTH  87667.      1461.1      24.352      1.0147     2.77799E-03
 STRESS PERIOD TIME 2.63000E+06  43833.      730.56      30.440     8.33397E-02
         TOTAL TIME 1.02656E+08 1.71093E+06  28515.      1188.1      3.2530    
1
1
                            STRESS PERIOD NO.   41, LENGTH =   2630000.    
                            -----------------------------------------------

                              NUMBER OF TIME STEPS =    30

                               MULTIPLIER FOR DELT =     1.000

                            INITIAL TIME STEP SIZE =   87666.66    

 REUSING NON-PARAMETER GHB CELLS FROM LAST STRESS PERIOD

      2 GHB CELLS

 REUSING STREAM SEGMENT DATA FROM LAST STRESS PERIOD



            AREAL INFILTRATION RATE
 READING ON UNIT   19 WITH FORMAT: (10F4.0)            

            1           2           3           4           5           6           7           8           9          10
 ........................................................................................................................
   1   1.2000E-09   0.000       0.000       0.000       0.000       0.000       0.000       0.000       0.000       0.000    
   2   2.1000E-09  2.0000E-09  8.0000E-10  8.5000E-09   0.000       0.000       0.000       0.000       0.000       0.000    
   3   5.0000E-10  1.1000E-09  8.8000E-09  5.5000E-09   0.000       0.000       0.000       0.000       0.000       0.000    
   4   8.5000E-09  1.1000E-09  1.1000E-09  1.1000E-09  2.0000E-09   0.000       0.000       0.000       0.000       0.000    
   5   8.5000E-09  1.1000E-09  1.1000E-09  1.1000E-09  1.1000E-09   0.000       0.000       0.000       0.000       0.000    
   6   8.5000E-09  5.2000E-09  2.1000E-09  1.1000E-09  1.5000E-09   0.000       0.000       0.000       0.000       0.000    
   7   8.5000E-09  5.2000E-09  2.1000E-09  1.2000E-09  2.0000E-09   0.000       0.000       0.000       0.000       0.000    
   8   5.0000E-10  5.2000E-09  2.1000E-09  1.2000E-09  5.0000E-09   0.000       0.000       0.000       0.000       0.000    
   9   5.0000E-10  5.2000E-09  2.1000E-09  1.2000E-09  5.0000E-09   0.000       0.000       0.000       0.000       0.000    
  10   5.0000E-10  5.2000E-09  2.1000E-09  1.2000E-09  5.8000E-09   0.000       0.000       0.000       0.000       0.000    
  11   1.0000E-10  1.1000E-09  1.1000E-09  1.2000E-09  5.0000E-09   0.000       0.000       0.000       0.000       0.000    
  12   1.1000E-09  1.1000E-09  1.1000E-09  1.1000E-09  2.0000E-09   0.000       0.000       0.000       0.000       0.000    
  13   1.1000E-09  2.2000E-09  2.2000E-09  2.1000E-09  1.0000E-09   0.000       0.000       0.000       0.000       0.000    
  14   2.0000E-10  5.5000E-09  5.5000E-09  5.2000E-09  1.0000E-09   0.000       0.000       0.000       0.000       0.000    
  15    0.000      8.8000E-09  8.8000E-09   0.000       0.000       0.000       0.000       0.000       0.000       0.000    

                  ET RATE =  2.500000E-08

 USING ET EXTINCTION DEPTH FROM PREVIOUS STRESS PERIOD. CURRENT PERIOD IS:      41

 USING EXTINCTION WATER CONTENT FROM PREVIOUS STRESS PERIOD. CURRENT PERIOD IS:      41

 USING AIR ENTRY PRESSURE FROM PREVIOUS STRESS PERIOD. CURRENT PERIOD IS:      41

 USING ROOT PRESSURE HEAD FROM PREVIOUS STRESS PERIOD. CURRENT PERIOD IS:      41

 USING ROOT ACTIVITY FROM PREVIOUS STRESS PERIOD. CURRENT PERIOD IS:      41

 PROCESSING AG STRESS PERIOD DATA

 READING AG STRESS PERIOD DATA

 READING IRRIGATION SEGMENT

 READING IRRIGATION WELL

 READING SUPPLEMENTAL WELL

 END PROCESSING AG STRESS PERIOD DATA OPTIONS
 
 SOLVING FOR HEAD 
                                                   Max.-Head-Change                         Max.-Flux-Residual
  Residual-Control   Outer-Iter.   Inner-Iter.     Column Row Layer    Maximum-Head-Change  Column Row Layer    Maximum-Flux-Residual          L2-NORM 
          0                 1           2             2    2     1       0.5104601413E-02       2    2    1         0.2664155003E+00      0.5732638228E+00
          0                 2           2             2    2     1      -0.4965396856E-03       2    2    1        -0.2664162719E-01      0.5753996541E-01
          0                 3           1             2    2     1       0.3381250045E-04       2    2    1         0.1864913985E-02      0.4127844843E-02

    ------------------------------------------------
       NWT REQUIRED            3 OUTER ITERATIONS 
       AND A TOTAL OF          5 INNER ITERATIONS.
    ------------------------------------------------

 NO OUTPUT CONTROL FOR STRESS PERIOD   41   TIME STEP    1
 
 SOLVING FOR HEAD 
                                                   Max.-Head-Change                         Max.-Flux-Residual
  Residual-Control   Outer-Iter.   Inner-Iter.     Column Row Layer    Maximum-Head-Change  Column Row Layer    Maximum-Flux-Residual          L2-NORM 
          0                 1           2             2    2     1       0.5074733641E-02       2    2    1         0.2648443033E+00      0.5633390449E+00
          0                 2           2             2    2     1      -0.4936343468E-03       2    2    1        -0.2648450623E-01      0.5627053682E-01
          0                 3           1             2    2     1       0.3361465816E-04       2    2    1         0.1853915532E-02      0.3936538848E-02

    ------------------------------------------------
       NWT REQUIRED            3 OUTER ITERATIONS 
       AND A TOTAL OF          5 INNER ITERATIONS.
    ------------------------------------------------

 NO OUTPUT CONTROL FOR STRESS PERIOD   41   TIME STEP    2
 
 SOLVING FOR HEAD 
                                                   Max.-Head-Change                         Max.-Flux-Residual
  Residual-Control   Outer-Iter.   Inner-Iter.     Column Row Layer    Maximum-Head-Change  Column Row Layer    Maximum-Flux-Residual          L2-NORM 
          0                 1           2             2    2     1       0.5045294377E-02       2    2    1         0.2632956939E+00      0.5562533321E+00
          0                 2           2             2    2     1      -0.4907706899E-03       2    2    1        -0.2632964403E-01      0.5555539669E-01
          0                 3           1             2    2     1       0.3341965358E-04       2    2    1         0.1843075159E-02      0.3882305150E-02

    ------------------------------------------------
       NWT REQUIRED            3 OUTER ITERATIONS 
       AND A TOTAL OF          5 INNER ITERATIONS.
    ------------------------------------------------

 NO OUTPUT CONTROL FOR STRESS PERIOD   41   TIME STEP    3
 
 SOLVING FOR HEAD 
                                                   Max.-Head-Change                         Max.-Flux-Residual
  Residual-Control   Outer-Iter.   Inner-Iter.     Column Row Layer    Maximum-Head-Change  Column Row Layer    Maximum-Flux-Residual          L2-NORM 
          0                 1           2             2    2     1       0.4894401975E-02       2    2    1         0.2553971952E+00      0.5331654416E+00
          0                 2           2             2    2     1      -0.4760928993E-03       2    2    1        -0.2553978921E-01      0.5319625356E-01
          0                 3           1             2    2     1       0.3242015135E-04       2    2    1         0.1787785368E-02      0.3720256984E-02

    ------------------------------------------------
       NWT REQUIRED            3 OUTER ITERATIONS 
       AND A TOTAL OF          5 INNER ITERATIONS.
    ------------------------------------------------

 NO OUTPUT CONTROL FOR STRESS PERIOD   41   TIME STEP    4
 
 SOLVING FOR HEAD 
                                                   Max.-Head-Change                         Max.-Flux-Residual
  Residual-Control   Outer-Iter.   Inner-Iter.     Column Row Layer    Maximum-Head-Change  Column Row Layer    Maximum-Flux-Residual          L2-NORM 
          0                 1           2             4   13     1      -0.8904784565E-02       4   13    1        -0.5243251847E+00      0.8587010059E+00
          0                 2           2             4   13     1       0.8590069787E-03       4   13    1         0.5200638216E-01      0.8422823012E-01
          0                 3           1             4   13     1      -0.5783208383E-04       4   13    1        -0.3600050044E-02      0.5745623455E-02

    ------------------------------------------------
       NWT REQUIRED            3 OUTER ITERATIONS 
       AND A TOTAL OF          5 INNER ITERATIONS.
    ------------------------------------------------

 NO OUTPUT CONTROL FOR STRESS PERIOD   41   TIME STEP    5
 
 SOLVING FOR HEAD 
                                                   Max.-Head-Change                         Max.-Flux-Residual
  Residual-Control   Outer-Iter.   Inner-Iter.     Column Row Layer    Maximum-Head-Change  Column Row Layer    Maximum-Flux-Residual          L2-NORM 
          0                 1           2             4   13     1      -0.7860154219E-02       4   13    1        -0.4627631712E+00      0.7832042559E+00
          0                 2           2             4   13     1       0.7582459688E-03       4   13    1         0.4590084979E-01      0.7686202504E-01
          0                 3           1             4   13     1      -0.5104550475E-04       4   13    1        -0.3177222489E-02      0.5246721643E-02

    ------------------------------------------------
       NWT REQUIRED            3 OUTER ITERATIONS 
       AND A TOTAL OF          5 INNER ITERATIONS.
    ------------------------------------------------

 NO OUTPUT CONTROL FOR STRESS PERIOD   41   TIME STEP    6
 
 SOLVING FOR HEAD 
                                                   Max.-Head-Change                         Max.-Flux-Residual
  Residual-Control   Outer-Iter.   Inner-Iter.     Column Row Layer    Maximum-Head-Change  Column Row Layer    Maximum-Flux-Residual          L2-NORM 
          0                 1           2             4   13     1      -0.6938748658E-02       4   13    1        -0.4084729554E+00      0.7174092012E+00
          0                 2           2             4   13     1       0.6693593649E-03       4   13    1         0.4051583146E-01      0.7044855905E-01
          0                 3           1             4   13     1      -0.4506920146E-04       4   13    1        -0.2804953336E-02      0.4812935711E-02

    ------------------------------------------------
       NWT REQUIRED            3 OUTER ITERATIONS 
       AND A TOTAL OF          5 INNER ITERATIONS.
    ------------------------------------------------

 NO OUTPUT CONTROL FOR STRESS PERIOD   41   TIME STEP    7
 
 SOLVING FOR HEAD 
                                                   Max.-Head-Change                         Max.-Flux-Residual
  Residual-Control   Outer-Iter.   Inner-Iter.     Column Row Layer    Maximum-Head-Change  Column Row Layer    Maximum-Flux-Residual          L2-NORM 
          0                 1           2             4   13     1      -0.6125905812E-02       4   13    1        -0.3605883758E+00      0.6602378643E+00
          0                 2           2             4   13     1       0.5909746863E-03       4   13    1         0.3576793349E-01      0.6488558360E-01
          0                 3           1             4   13     1      -0.3978124794E-04       4   13    1        -0.2475617910E-02      0.4437123768E-02

    ------------------------------------------------
       NWT REQUIRED            3 OUTER ITERATIONS 
       AND A TOTAL OF          5 INNER ITERATIONS.
    ------------------------------------------------

 NO OUTPUT CONTROL FOR STRESS PERIOD   41   TIME STEP    8
 
 SOLVING FOR HEAD 
                                                   Max.-Head-Change                         Max.-Flux-Residual
  Residual-Control   Outer-Iter.   Inner-Iter.     Column Row Layer    Maximum-Head-Change  Column Row Layer    Maximum-Flux-Residual          L2-NORM 
          0                 1           2             3   13     1      -0.5477456600E-02       3   13    1        -0.3185795418E+00      0.6107305724E+00
          0                 2           2             4   13     1       0.5218045960E-03       4   13    1         0.3157897335E-01      0.6007445982E-01
          0                 3           1             4   13     1      -0.3512629058E-04       4   13    1        -0.2185766019E-02      0.4112791901E-02

    ------------------------------------------------
       NWT REQUIRED            3 OUTER ITERATIONS 
       AND A TOTAL OF          5 INNER ITERATIONS.
    ------------------------------------------------

 NO OUTPUT CONTROL FOR STRESS PERIOD   41   TIME STEP    9
 
 SOLVING FOR HEAD 
                                                   Max.-Head-Change                         Max.-Flux-Residual
  Residual-Control   Outer-Iter.   Inner-Iter.     Column Row Layer    Maximum-Head-Change  Column Row Layer    Maximum-Flux-Residual          L2-NORM 
          0                 1           2             3   13     1      -0.4899283186E-02       3   13    1        -0.2849595305E+00      0.5680327089E+00
          0                 2           2             3   13     1       0.4656211981E-03       4   13    1         0.2788328240E-01      0.5593189883E-01
          0                 3           1             4   13     1      -0.3101826184E-04       4   13    1        -0.1930009363E-02      0.3835065925E-02

    ------------------------------------------------
       NWT REQUIRED            3 OUTER ITERATIONS 
       AND A TOTAL OF          5 INNER ITERATIONS.
    ------------------------------------------------

 NO OUTPUT CONTROL FOR STRESS PERIOD   41   TIME STEP   10
 
 SOLVING FOR HEAD 
                                                   Max.-Head-Change                         Max.-Flux-Residual
  Residual-Control   Outer-Iter.   Inner-Iter.     Column Row Layer    Maximum-Head-Change  Column Row Layer    Maximum-Flux-Residual          L2-NORM 
          0                 1           2             3   13     1      -0.4381902346E-02       3   13    1        -0.2548745503E+00      0.5313302908E+00
          0                 2           2             3   13     1       0.4165814063E-03       3   13    1         0.2491260348E-01      0.5237841184E-01
          0                 3           1             3   13     1      -0.2750139110E-04       4   13    1        -0.1705702608E-02      0.3598666049E-02

    ------------------------------------------------
       NWT REQUIRED            3 OUTER ITERATIONS 
       AND A TOTAL OF          5 INNER ITERATIONS.
    ------------------------------------------------

 NO OUTPUT CONTROL FOR STRESS PERIOD   41   TIME STEP   11
 
 SOLVING FOR HEAD 
                                                   Max.-Head-Change                         Max.-Flux-Residual
  Residual-Control   Outer-Iter.   Inner-Iter.     Column Row Layer    Maximum-Head-Change  Column Row Layer    Maximum-Flux-Residual          L2-NORM 
          0                 1           2             3   13     1      -0.3918990048E-02       3   13    1        -0.2279570019E+00      0.4999213714E+00
          0                 2           2             3   13     1       0.3726053068E-03       3   13    1         0.2228351395E-01      0.4933882452E-01
          0                 3           1             3   13     1      -0.2457527223E-04       3   13    1        -0.1511055312E-02      0.3393468972E-02

    ------------------------------------------------
       NWT REQUIRED            3 OUTER ITERATIONS 
       AND A TOTAL OF          5 INNER ITERATIONS.
    ------------------------------------------------

 NO OUTPUT CONTROL FOR STRESS PERIOD   41   TIME STEP   12
 
 SOLVING FOR HEAD 
                                                   Max.-Head-Change                         Max.-Flux-Residual
  Residual-Control   Outer-Iter.   Inner-Iter.     Column Row Layer    Maximum-Head-Change  Column Row Layer    Maximum-Flux-Residual          L2-NORM 
          0                 1           2             3   13     1      -0.3504708509E-02       3   13    1        -0.2038674489E+00      0.4731414886E+00
          0                 2           2             3   13     1       0.3332959973E-03       3   13    1         0.1993349099E-01      0.4675264618E-01
          0                 3           1             3   13     1      -0.2197545089E-04       3   13    1        -0.1351250940E-02      0.3220629369E-02

    ------------------------------------------------
       NWT REQUIRED            3 OUTER ITERATIONS 
       AND A TOTAL OF          5 INNER ITERATIONS.
    ------------------------------------------------

 NO OUTPUT CONTROL FOR STRESS PERIOD   41   TIME STEP   13
 
 SOLVING FOR HEAD 
                                                   Max.-Head-Change                         Max.-Flux-Residual
  Residual-Control   Outer-Iter.   Inner-Iter.     Column Row Layer    Maximum-Head-Change  Column Row Layer    Maximum-Flux-Residual          L2-NORM 
          0                 1           2             1    1     1       0.3310623852E-02       3   13    1        -0.1823127644E+00      0.4503901204E+00
          0                 2           2             1    1     1      -0.3220336940E-03       3   13    1         0.1783121625E-01      0.4456044215E-01
          0                 3           1             1    1     1       0.2192929783E-04       3   13    1        -0.1210951956E-02      0.3075356819E-02

    ------------------------------------------------
       NWT REQUIRED            3 OUTER ITERATIONS 
       AND A TOTAL OF          5 INNER ITERATIONS.
    ------------------------------------------------

 NO OUTPUT CONTROL FOR STRESS PERIOD   41   TIME STEP   14
 
 SOLVING FOR HEAD 
                                                   Max.-Head-Change                         Max.-Flux-Residual
  Residual-Control   Outer-Iter.   Inner-Iter.     Column Row Layer    Maximum-Head-Change  Column Row Layer    Maximum-Flux-Residual          L2-NORM 
          0                 1           2             1    1     1       0.3307651709E-02       1    1    1         0.1716838325E+00      0.4311322581E+00
          0                 2           2             1    1     1      -0.3217445844E-03       1    1    1        -0.1716840104E-01      0.4270725449E-01
          0                 3           1             1    1     1       0.2190961088E-04       1    1    1         0.1201788432E-02      0.2952248236E-02

    ------------------------------------------------
       NWT REQUIRED            3 OUTER ITERATIONS 
       AND A TOTAL OF          5 INNER ITERATIONS.
    ------------------------------------------------

 NO OUTPUT CONTROL FOR STRESS PERIOD   41   TIME STEP   15
 
 SOLVING FOR HEAD 
                                                   Max.-Head-Change                         Max.-Flux-Residual
  Residual-Control   Outer-Iter.   Inner-Iter.     Column Row Layer    Maximum-Head-Change  Column Row Layer    Maximum-Flux-Residual          L2-NORM 
          0                 1           2             1    1     1       0.3304690434E-02       1    1    1         0.1715297318E+00      0.4148731653E+00
          0                 2           2             1    1     1      -0.3214565319E-03       1    1    1        -0.1715299090E-01      0.4114304162E-01
          0                 3           1             1    1     1       0.2188999539E-04       1    1    1         0.1200709702E-02      0.2848521058E-02

    ------------------------------------------------
       NWT REQUIRED            3 OUTER ITERATIONS 
       AND A TOTAL OF          5 INNER ITERATIONS.
    ------------------------------------------------

 NO OUTPUT CONTROL FOR STRESS PERIOD   41   TIME STEP   16
 
 SOLVING FOR HEAD 
                                                   Max.-Head-Change                         Max.-Flux-Residual
  Residual-Control   Outer-Iter.   Inner-Iter.     Column Row Layer    Maximum-Head-Change  Column Row Layer    Maximum-Flux-Residual          L2-NORM 
          0                 1           2             1    1     1       0.3301716545E-02       1    1    1         0.1713749793E+00      0.4011796860E+00
          0                 2           2             1    1     1      -0.3211672525E-03       1    1    1        -0.1713751557E-01      0.3982808162E-01
          0                 3           1             1    1     1       0.2187029660E-04       1    1    1         0.1199626444E-02      0.2761802160E-02

    ------------------------------------------------
       NWT REQUIRED            3 OUTER ITERATIONS 
       AND A TOTAL OF          5 INNER ITERATIONS.
    ------------------------------------------------

 NO OUTPUT CONTROL FOR STRESS PERIOD   41   TIME STEP   17
 
 SOLVING FOR HEAD 
                                                   Max.-Head-Change                         Max.-Flux-Residual
  Residual-Control   Outer-Iter.   Inner-Iter.     Column Row Layer    Maximum-Head-Change  Column Row Layer    Maximum-Flux-Residual          L2-NORM 
          0                 1           2             1    1     1       0.3298776847E-02       1    1    1         0.1712220034E+00      0.3896718563E+00
          0                 2           2             1    1     1      -0.3208812988E-03       1    1    1        -0.1712221790E-01      0.3872464590E-01
          0                 3           1             1    1     1       0.2185082431E-04       1    1    1         0.1198555609E-02      0.2687897475E-02

    ------------------------------------------------
       NWT REQUIRED            3 OUTER ITERATIONS 
       AND A TOTAL OF          5 INNER ITERATIONS.
    ------------------------------------------------

 NO OUTPUT CONTROL FOR STRESS PERIOD   41   TIME STEP   18
 
 SOLVING FOR HEAD 
                                                   Max.-Head-Change                         Max.-Flux-Residual
  Residual-Control   Outer-Iter.   Inner-Iter.     Column Row Layer    Maximum-Head-Change  Column Row Layer    Maximum-Flux-Residual          L2-NORM 
          0                 1           2             1    1     1       0.3295824425E-02       1    1    1         0.1710683694E+00      0.3799989153E+00
          0                 2           2             1    1     1      -0.3205941078E-03       1    1    1        -0.1710685445E-01      0.3779695089E-01
          0                 3           1             1    1     1       0.2183126753E-04       1    1    1         0.1197480156E-02      0.2626839556E-02

    ------------------------------------------------
       NWT REQUIRED            3 OUTER ITERATIONS 
       AND A TOTAL OF          5 INNER ITERATIONS.
    ------------------------------------------------

 NO OUTPUT CONTROL FOR STRESS PERIOD   41   TIME STEP   19
 
 SOLVING FOR HEAD 
                                                   Max.-Head-Change                         Max.-Flux-Residual
  Residual-Control   Outer-Iter.   Inner-Iter.     Column Row Layer    Maximum-Head-Change  Column Row Layer    Maximum-Flux-Residual          L2-NORM 
          0                 1           2             1    1     1       0.3292906084E-02       1    1    1         0.1709165067E+00      0.3718766263E+00
          0                 2           2             1    1     1      -0.3203102317E-03       1    1    1        -0.1709166811E-01      0.3701896272E-01
          0                 3           1             1    1     1       0.2181193676E-04       1    1    1         0.1196417114E-02      0.2575707990E-02

    ------------------------------------------------
       NWT REQUIRED            3 OUTER ITERATIONS 
       AND A TOTAL OF          5 INNER ITERATIONS.
    ------------------------------------------------

 NO OUTPUT CONTROL FOR STRESS PERIOD   41   TIME STEP   20
 
 SOLVING FOR HEAD 
                                                   Max.-Head-Change                         Max.-Flux-Residual
  Residual-Control   Outer-Iter.   Inner-Iter.     Column Row Layer    Maximum-Head-Change  Column Row Layer    Maximum-Flux-Residual          L2-NORM 
          0                 1           2             1    1     1       0.3289998324E-02       1    1    1         0.1707651956E+00      0.3650454889E+00
          0                 2           2             1    1     1      -0.3200273848E-03       1    1    1        -0.1707653693E-01      0.3636378881E-01
          0                 3           1             1    1     1       0.2179267606E-04       1    1    1         0.1195357932E-02      0.2532161327E-02

    ------------------------------------------------
       NWT REQUIRED            3 OUTER ITERATIONS 
       AND A TOTAL OF          5 INNER ITERATIONS.
    ------------------------------------------------

 NO OUTPUT CONTROL FOR STRESS PERIOD   41   TIME STEP   21
 
 SOLVING FOR HEAD 
                                                   Max.-Head-Change                         Max.-Flux-Residual
  Residual-Control   Outer-Iter.   Inner-Iter.     Column Row Layer    Maximum-Head-Change  Column Row Layer    Maximum-Flux-Residual          L2-NORM 
          0                 1           2             1    1     1       0.3287077655E-02       1    1    1         0.1706132173E+00      0.3593001586E+00
          0                 2           2             1    1     1      -0.3197432821E-03       1    1    1        -0.1706133901E-01      0.3581367337E-01
          0                 3           1             1    1     1       0.2177332944E-04       1    1    1         0.1194294078E-02      0.2496802037E-02

    ------------------------------------------------
       NWT REQUIRED            3 OUTER ITERATIONS 
       AND A TOTAL OF          5 INNER ITERATIONS.
    ------------------------------------------------

 NO OUTPUT CONTROL FOR STRESS PERIOD   41   TIME STEP   22
 
 SOLVING FOR HEAD 
                                                   Max.-Head-Change                         Max.-Flux-Residual
  Residual-Control   Outer-Iter.   Inner-Iter.     Column Row Layer    Maximum-Head-Change  Column Row Layer    Maximum-Flux-Residual          L2-NORM 
          0                 1           2             1    1     1       0.3284190905E-02       1    1    1         0.1704630013E+00      0.3544422311E+00
          0                 2           2             1    1     1      -0.3194624792E-03       1    1    1        -0.1704631736E-01      0.3534789613E-01
          0                 3           1             1    1     1       0.2175420789E-04       1    1    1         0.1193242561E-02      0.2465367939E-02

    ------------------------------------------------
       NWT REQUIRED            3 OUTER ITERATIONS 
       AND A TOTAL OF          5 INNER ITERATIONS.
    ------------------------------------------------

 NO OUTPUT CONTROL FOR STRESS PERIOD   41   TIME STEP   23
 
 SOLVING FOR HEAD 
                                                   Max.-Head-Change                         Max.-Flux-Residual
  Residual-Control   Outer-Iter.   Inner-Iter.     Column Row Layer    Maximum-Head-Change  Column Row Layer    Maximum-Flux-Residual          L2-NORM 
          0                 1           2             1    1     1       0.3281291158E-02       1    1    1         0.1703121121E+00      0.3503321560E+00
          0                 2           2             1    1     1      -0.3191804116E-03       1    1    1        -0.1703122835E-01      0.3495407869E-01
          0                 3           1             1    1     1       0.2173500020E-04       1    1    1         0.1192186342E-02      0.2440240555E-02

    ------------------------------------------------
       NWT REQUIRED            3 OUTER ITERATIONS 
       AND A TOTAL OF          5 INNER ITERATIONS.
    ------------------------------------------------

 NO OUTPUT CONTROL FOR STRESS PERIOD   41   TIME STEP   24
 
 SOLVING FOR HEAD 
                                                   Max.-Head-Change                         Max.-Flux-Residual
  Residual-Control   Outer-Iter.   Inner-Iter.     Column Row Layer    Maximum-Head-Change  Column Row Layer    Maximum-Flux-Residual          L2-NORM 
          0                 1           2             1    1     1       0.3278401811E-02       1    1    1         0.1701617650E+00      0.3468406549E+00
          0                 2           2             1    1     1      -0.3188993559E-03       1    1    1        -0.1701619357E-01      0.3461907335E-01
          0                 3           1             1    1     1       0.2171586138E-04       1    1    1         0.1191133907E-02      0.2417229151E-02

    ------------------------------------------------
       NWT REQUIRED            3 OUTER ITERATIONS 
       AND A TOTAL OF          5 INNER ITERATIONS.
    ------------------------------------------------

 NO OUTPUT CONTROL FOR STRESS PERIOD   41   TIME STEP   25
 
 SOLVING FOR HEAD 
                                                   Max.-Head-Change                         Max.-Flux-Residual
  Residual-Control   Outer-Iter.   Inner-Iter.     Column Row Layer    Maximum-Head-Change  Column Row Layer    Maximum-Flux-Residual          L2-NORM 
          0                 1           2             1    1     1       0.3275546224E-02       1    1    1         0.1700131733E+00      0.3438641255E+00
          0                 2           2             1    1     1      -0.3186215841E-03       1    1    1        -0.1700133433E-01      0.3433293796E-01
          0                 3           1             1    1     1       0.2169694621E-04       1    1    1         0.1190093754E-02      0.2398174450E-02

    ------------------------------------------------
       NWT REQUIRED            3 OUTER ITERATIONS 
       AND A TOTAL OF          5 INNER ITERATIONS.
    ------------------------------------------------

 NO OUTPUT CONTROL FOR STRESS PERIOD   41   TIME STEP   26
 
 SOLVING FOR HEAD 
                                                   Max.-Head-Change                         Max.-Flux-Residual
  Residual-Control   Outer-Iter.   Inner-Iter.     Column Row Layer    Maximum-Head-Change  Column Row Layer    Maximum-Flux-Residual          L2-NORM 
          0                 1           2             1    1     1       0.3111661919E-02       1    1    1         0.1614995058E+00      0.3533978982E+00
          0                 2           2             1    1     1      -0.3026800738E-03       1    1    1        -0.1614996520E-01      0.3513871872E-01
          0                 3           1             1    1     1       0.2061138863E-04       1    1    1         0.1130497918E-02      0.2441120308E-02

    ------------------------------------------------
       NWT REQUIRED            3 OUTER ITERATIONS 
       AND A TOTAL OF          5 INNER ITERATIONS.
    ------------------------------------------------

 NO OUTPUT CONTROL FOR STRESS PERIOD   41   TIME STEP   27
 
 SOLVING FOR HEAD 
                                                   Max.-Head-Change                         Max.-Flux-Residual
  Residual-Control   Outer-Iter.   Inner-Iter.     Column Row Layer    Maximum-Head-Change  Column Row Layer    Maximum-Flux-Residual          L2-NORM 
          0                 1           2             2   13     1      -0.3933540723E-02       2   13    1        -0.2221547915E+00      0.4755894036E+00
          0                 2           2             2   13     1       0.3670020385E-03       4   13    1         0.2134089841E-01      0.4666708200E-01
          0                 3           1             4   13     1      -0.2381259285E-04       4   13    1        -0.1476024760E-02      0.3183454201E-02

    ------------------------------------------------
       NWT REQUIRED            3 OUTER ITERATIONS 
       AND A TOTAL OF          5 INNER ITERATIONS.
    ------------------------------------------------

 NO OUTPUT CONTROL FOR STRESS PERIOD   41   TIME STEP   28
 
 SOLVING FOR HEAD 
                                                   Max.-Head-Change                         Max.-Flux-Residual
  Residual-Control   Outer-Iter.   Inner-Iter.     Column Row Layer    Maximum-Head-Change  Column Row Layer    Maximum-Flux-Residual          L2-NORM 
          0                 1           2             2   13     1      -0.3627928204E-02       2   13    1        -0.2049024467E+00      0.4463289673E+00
          0                 2           2             2   13     1       0.3388271752E-03       2   13    1         0.1967161637E-01      0.4384547528E-01
          0                 3           1             2   13     1      -0.2177380266E-04       4   13    1        -0.1307715869E-02      0.2995706794E-02

    ------------------------------------------------
       NWT REQUIRED            3 OUTER ITERATIONS 
       AND A TOTAL OF          5 INNER ITERATIONS.
    ------------------------------------------------

 NO OUTPUT CONTROL FOR STRESS PERIOD   41   TIME STEP   29
 
 SOLVING FOR HEAD 
                                                   Max.-Head-Change                         Max.-Flux-Residual
  Residual-Control   Outer-Iter.   Inner-Iter.     Column Row Layer    Maximum-Head-Change  Column Row Layer    Maximum-Flux-Residual          L2-NORM 
          0                 1           2             2   13     1      -0.3345632085E-02       2   13    1        -0.1889641509E+00      0.4208408578E+00
          0                 2           2             2   13     1       0.3127459664E-03       2   13    1         0.1815798875E-01      0.4139138210E-01
          0                 3           1             2   13     1      -0.2012841079E-04       2   13    1        -0.1201213247E-02      0.2832267281E-02

    ------------------------------------------------
       NWT REQUIRED            3 OUTER ITERATIONS 
       AND A TOTAL OF          5 INNER ITERATIONS.
    ------------------------------------------------

 NO OUTPUT CONTROL FOR STRESS PERIOD   41   TIME STEP   30



 STREAM LISTING     PERIOD     41   STEP       30

 LAYER ROW COL. STREAM  RCH.  FLOW INTO     FLOW TO   FLOW OUT OF   OVRLND.     DIRECT     STREAM       STREAM     STREAM     STREAM   STREAMBED  STREAMBED
                SEG.NO.  NO.  STRM. RCH.    AQUIFER    STRM. RCH.    RUNOFF     PRECIP       ET          HEAD       DEPTH      WIDTH   CONDCTNC.   GRADIENT

   1    1    1     1     1    4.7249E+01  3.2762E-01   4.6921E+01  0.000E+00  0.000E+00  0.000E+00  1.09443E+03  1.381E+00  1.662E+01  7.477E-02  1.460E+00
   1    2    2     1     2    4.6921E+01  5.0759E-01   4.6413E+01  0.000E+00  0.000E+00  0.000E+00  1.08944E+03  1.379E+00  1.656E+01  1.159E-01  1.460E+00
   1    3    3     1     3    4.6413E+01  4.3309E-01   4.5980E+01  0.000E+00  0.000E+00  0.000E+00  1.08379E+03  1.376E+00  1.650E+01  9.898E-02  1.459E+00
   1    3    4     1     4    4.5980E+01  3.9899E-01   4.5581E+01  0.000E+00  0.000E+00  0.000E+00  1.07878E+03  1.373E+00  1.644E+01  9.124E-02  1.458E+00
   1    4    5     2     1    4.3581E+01  3.6514E-01   4.3216E+01  0.000E+00  0.000E+00  0.000E+00  1.07362E+03  1.681E+00  1.200E+01  7.800E-02  1.560E+00
   1    5    6     2     2    4.3216E+01  2.8042E-01   4.2936E+01  0.000E+00  0.000E+00  0.000E+00  1.06818E+03  1.674E+00  1.200E+01  6.000E-02  1.558E+00
   1    6    6     2     3    4.2936E+01  2.8003E-01   4.2656E+01  0.000E+00  0.000E+00  0.000E+00  1.06346E+03  1.667E+00  1.200E+01  6.000E-02  1.556E+00
   1    7    6     2     4    4.2656E+01  2.7964E-01   4.2376E+01  0.000E+00  0.000E+00  0.000E+00  1.05874E+03  1.661E+00  1.200E+01  6.000E-02  1.554E+00
   1    8    6     2     5    4.2376E+01  2.7924E-01   4.2097E+01  0.000E+00  0.000E+00  0.000E+00  1.05401E+03  1.654E+00  1.200E+01  6.000E-02  1.551E+00
   1    3    5     3     1    2.0000E+00  2.8252E-01   1.7175E+00  0.000E+00  0.000E+00  0.000E+00  1.07555E+03  1.909E+00  9.636E+00  7.227E-02  1.955E+00
   1    3    6     3     2    1.7175E+00  2.4905E-01   1.4684E+00  0.000E+00  0.000E+00  0.000E+00  1.07264E+03  1.727E+00  8.909E+00  6.682E-02  1.864E+00
   1    3    7     3     3    1.4684E+00  1.9718E-01   1.2712E+00  0.000E+00  0.000E+00  0.000E+00  1.06987E+03  1.555E+00  8.218E+00  5.547E-02  1.777E+00
   1    4    8     3     4    1.2712E+00  2.2567E-01   1.0456E+00  0.000E+00  0.000E+00  0.000E+00  1.06682E+03  1.364E+00  7.455E+00  6.709E-02  1.682E+00
   1    5    8     3     5    1.0456E+00  1.5790E-01   8.8768E-01  0.000E+00  0.000E+00  0.000E+00  1.06362E+03  1.164E+00  6.655E+00  4.991E-02  1.582E+00
   1    6    8     3     6    8.8768E-01  5.5980E-02   8.3170E-01  0.000E+00  0.000E+00  0.000E+00  1.06158E+03  1.036E+00  6.145E+00  1.844E-02  1.518E+00
   1    5   10     4     1    1.0000E+01  9.0919E-02   9.9091E+00  0.000E+00  0.000E+00  0.000E+00  1.07836E+03  6.368E-01  1.000E+01  2.500E-02  1.212E+00
   1    5    9     4     2    9.9091E+00  1.8158E-01   9.7275E+00  0.000E+00  0.000E+00  0.000E+00  1.07154E+03  6.315E-01  1.000E+01  5.000E-02  1.211E+00
   1    6    8     4     3    9.7275E+00  1.2689E-01   9.6006E+00  0.000E+00  0.000E+00  0.000E+00  1.06381E+03  6.256E-01  1.000E+01  3.500E-02  1.209E+00
   1    6    8     5     1    1.0432E+01  2.2686E-01   1.0205E+01  0.000E+00  0.000E+00  0.000E+00  1.05868E+03  6.790E-01  1.542E+01  6.166E-02  1.226E+00
   1    7    7     5     2    1.0205E+01  2.7894E-01   9.9265E+00  0.000E+00  0.000E+00  0.000E+00  1.05417E+03  6.732E-01  1.519E+01  7.594E-02  1.224E+00
   1    8    7     5     3    9.9265E+00  1.9221E-01   9.7343E+00  0.000E+00  0.000E+00  0.000E+00  1.04992E+03  6.676E-01  1.497E+01  5.241E-02  1.223E+00
   1    8    6     5     4    9.7343E+00  1.3577E-01   9.5985E+00  0.000E+00  0.000E+00  0.000E+00  1.04691E+03  6.637E-01  1.482E+01  3.706E-02  1.221E+00
   1    9    6     6     1    5.1695E+01  2.9310E-01   5.1402E+01  0.000E+00  0.000E+00  0.000E+00  1.04461E+03  1.885E+00  1.200E+01  6.000E-02  1.628E+00
   1   10    7     6     2    5.1402E+01  2.9271E-01   5.1110E+01  0.000E+00  0.000E+00  0.000E+00  1.04006E+03  1.879E+00  1.200E+01  6.000E-02  1.626E+00
   1   11    7     6     3    5.1110E+01  2.9233E-01   5.0817E+01  0.000E+00  0.000E+00  0.000E+00  1.03551E+03  1.872E+00  1.200E+01  6.000E-02  1.624E+00
   1   12    7     6     4    5.0817E+01  2.9194E-01   5.0525E+01  0.000E+00  0.000E+00  0.000E+00  1.03096E+03  1.866E+00  1.200E+01  6.000E-02  1.622E+00
   1   13    7     6     5    5.0525E+01  1.3531E-02   5.0512E+01  0.000E+00  0.000E+00  0.000E+00  1.02777E+03  1.862E+00  1.200E+01  2.400E-02  1.879E-01
   1   14    9     7     1    1.5000E+02  1.3322E+00   1.4867E+02  0.000E+00  0.000E+00  0.000E+00  1.03987E+03  2.288E+00  5.529E+01  5.593E-01  7.940E-01
   1   13    8     7     2    1.4867E+02  1.8051E+00   1.4686E+02  0.000E+00  0.000E+00  0.000E+00  1.03478E+03  2.279E+00  5.526E+01  6.148E-01  9.787E-01
   1   13    7     7     3    1.4686E+02  1.3865E+00   1.4548E+02  0.000E+00  0.000E+00  0.000E+00  1.02969E+03  2.271E+00  5.522E+01  5.585E-01  8.276E-01
   1   13    6     8     1    1.9599E+02  9.3048E-01   1.9506E+02  0.000E+00  0.000E+00  0.000E+00  1.02499E+03  3.111E+00  4.511E+01  4.597E-01  6.747E-01
   1   13    5     8     2    1.9506E+02  1.4116E-01   1.9492E+02  0.000E+00  0.000E+00  0.000E+00  1.01873E+03  3.108E+00  4.507E+01  4.592E-01  1.025E-01
   1   13    4     8     3    1.9492E+02 -2.6671E+00   1.9758E+02  0.000E+00  0.000E+00  0.000E+00  1.01249E+03  3.116E+00  4.518E+01  4.604E+00 -1.931E-01
   1   13    3     8     4    1.9758E+02 -3.7882E+00   2.0137E+02  0.000E+00  0.000E+00  0.000E+00  1.00626E+03  3.135E+00  4.545E+01  4.632E+00 -2.726E-01
   1   13    2     8     5    2.0137E+02 -2.7306E+00   2.0410E+02  0.000E+00  0.000E+00  0.000E+00  1.00003E+03  3.154E+00  4.573E+01  4.660E+00 -1.953E-01
   1   13    1     8     6    2.0410E+02 -2.0838E+00   2.0619E+02  0.000E+00  0.000E+00  0.000E+00  9.95043E+02  3.168E+00  4.593E+01  2.808E+00 -2.473E-01
   1    8    6     9     1    0.0000E+00  0.0000E+00   0.0000E+00  0.000E+00  0.000E+00  0.000E+00  1.07875E+03  0.000E+00  4.000E+00  0.000E+00  1.000E+00
   1    8    5     9     2    0.0000E+00  0.0000E+00   0.0000E+00  0.000E+00  0.000E+00  0.000E+00  1.07825E+03  0.000E+00  4.000E+00  0.000E+00  1.000E+00





UNSATURATED ZONE PACKAGE VOLUMETRIC BUDGET FOR  TIME STEP    30 STRESS PERIOD   41
  ------------------------------------------------------------------------------



     CUMULATIVE VOLUMES      L**3       RATES FOR THIS TIME STEP      L**3/T
     ------------------                 ------------------------

           IN:                                      IN:
           ---                                      ---
        INFILTRATION =   464591025.9846          INFILTRATION =           4.4075

          OUT:                                     OUT:
          ----                                     ----
              UZF ET =   336310982.6013                UZF ET =           4.4075
        UZF RECHARGE =     2053800.1856          UZF RECHARGE =       0.0000E+00

            IN - OUT =   126226243.1977              IN - OUT =       0.0000E+00

          STORAGE:                                 STORAGE:
          --------                                 --------
      STORAGE CHANGE =   126228454.0494        STORAGE CHANGE =      -5.4611E-14

 PERCENT DISCREPANCY IS DIFFERENCE BETWEEN IN-OUT MINUS CHANGE IN STORAGE
 DIVIDED BY THE AVERAGE OF IN AND OUT TIMES 100

 PERCENT DISCREPANCY =          -0.00     PERCENT DISCREPANCY =           0.00






1
  VOLUMETRIC BUDGET FOR ENTIRE MODEL AT END OF TIME STEP   30, STRESS PERIOD  41
  ------------------------------------------------------------------------------

     CUMULATIVE VOLUMES      L**3       RATES FOR THIS TIME STEP      L**3/T
     ------------------                 ------------------------

           IN:                                      IN:
           ---                                      ---
               AG WELLS  =           0.0000                 AG WELLS  =           0.0000
        DIVERSION SEGMEN =      848802.5000          DIVERSION SEGMEN =           0.0000
    TS         GW IRRIGA =           0.0000      TS         GW IRRIGA =           0.0000
    TION         SW IRRI =           0.0000      TION         SW IRRI =           0.0000
    GATION      SYSTEM L =           0.0000      GATION      SYSTEM L =           0.0000
    OSSES GW      SYSTEM =           0.1856      OSSES GW      SYSTEM =           0.0000

                TOTAL IN =      848802.6875                  TOTAL IN =           0.0000

          OUT:                                     OUT:
          ----                                     ----
               AG WELLS  =           0.0000                 AG WELLS  =           0.0000
        DIVERSION SEGMEN =           0.0000          DIVERSION SEGMEN =           0.0000
    TS         GW IRRIGA =           0.0000      TS         GW IRRIGA =           0.0000
    TION         SW IRRI =      848819.6875      TION         SW IRRI =           0.0000
    GATION      SYSTEM L =           0.0000      GATION      SYSTEM L =           0.0000
    OSSES GW      SYSTEM =           0.0000      OSSES GW      SYSTEM =           0.0000

               TOTAL OUT =      848819.6875                 TOTAL OUT =           0.0000

                IN - OUT =         -17.0000                  IN - OUT =           0.0000

     PERCENT DISCREPANCY =          -0.00         PERCENT DISCREPANCY =           0.00



1
  VOLUMETRIC BUDGET FOR ENTIRE MODEL AT END OF TIME STEP   30, STRESS PERIOD  41
  ------------------------------------------------------------------------------

     CUMULATIVE VOLUMES      L**3       RATES FOR THIS TIME STEP      L**3/T
     ------------------                 ------------------------

           IN:                                      IN:
           ---                                      ---
             STORAGE     =    52624224.0000               STORAGE     =           0.6618
       CONSTANT HEAD     =           0.0000         CONSTANT HEAD     =           0.0000
     HEAD DEP BOUNDS     =    30071414.0000       HEAD DEP BOUNDS     =           0.2855
      STREAM LEAKAGE     =  1257549568.0000        STREAM LEAKAGE     =          12.3323
        UZF RECHARGE     =     2053800.1250          UZF RECHARGE     =           0.0000
               GW ET     =           0.0000                 GW ET     =           0.0000
     SURFACE LEAKAGE     =           0.0000       SURFACE LEAKAGE     =           0.0000
           AG WELLS      =           0.0000             AG WELLS      =           0.0000

                TOTAL IN =  1342299008.0000                  TOTAL IN =          13.2796

          OUT:                                     OUT:
          ----                                     ----
             STORAGE     =   162877376.0000               STORAGE     =           1.5459
       CONSTANT HEAD     =           0.0000         CONSTANT HEAD     =           0.0000
     HEAD DEP BOUNDS     =    30785826.0000       HEAD DEP BOUNDS     =           0.2958
      STREAM LEAKAGE     =  1131390976.0000        STREAM LEAKAGE     =          11.2697
        UZF RECHARGE     =           0.0000          UZF RECHARGE     =           0.0000
               GW ET     =    17265212.0000                 GW ET     =           0.1684
     SURFACE LEAKAGE     =           0.0000       SURFACE LEAKAGE     =           0.0000
           AG WELLS      =           0.0000             AG WELLS      =           0.0000

               TOTAL OUT =  1342319360.0000                 TOTAL OUT =          13.2799

                IN - OUT =      -20352.0000                  IN - OUT =      -2.4796E-04

     PERCENT DISCREPANCY =          -0.00         PERCENT DISCREPANCY =          -0.00






         TIME SUMMARY AT END OF TIME STEP   30 IN STRESS PERIOD   41
                    SECONDS     MINUTES      HOURS       DAYS        YEARS
                    -----------------------------------------------------------
   TIME STEP LENGTH  87667.      1461.1      24.352      1.0147     2.77799E-03
 STRESS PERIOD TIME 2.63000E+06  43833.      730.56      30.440     8.33397E-02
         TOTAL TIME 1.05286E+08 1.75476E+06  29246.      1218.6      3.3363    
1
1
                            STRESS PERIOD NO.   42, LENGTH =   2630000.    
                            -----------------------------------------------

                              NUMBER OF TIME STEPS =    30

                               MULTIPLIER FOR DELT =     1.000

                            INITIAL TIME STEP SIZE =   87666.66    

 REUSING NON-PARAMETER GHB CELLS FROM LAST STRESS PERIOD

      2 GHB CELLS

 REUSING STREAM SEGMENT DATA FROM LAST STRESS PERIOD



            AREAL INFILTRATION RATE
 READING ON UNIT   19 WITH FORMAT: (10F4.0)            

            1           2           3           4           5           6           7           8           9          10
 ........................................................................................................................
   1   1.2000E-09   0.000       0.000       0.000       0.000       0.000       0.000       0.000       0.000       0.000    
   2   2.1000E-09  2.0000E-09  8.0000E-10  8.5000E-09   0.000       0.000       0.000       0.000       0.000       0.000    
   3   5.0000E-10  1.1000E-09  8.8000E-09  5.5000E-09   0.000       0.000       0.000       0.000       0.000       0.000    
   4   8.5000E-09  1.1000E-09  1.1000E-09  1.1000E-09  2.0000E-09   0.000       0.000       0.000       0.000       0.000    
   5   8.5000E-09  1.1000E-09  1.1000E-09  1.1000E-09  1.1000E-09   0.000       0.000       0.000       0.000       0.000    
   6   8.5000E-09  5.2000E-09  2.1000E-09  1.1000E-09  1.5000E-09   0.000       0.000       0.000       0.000       0.000    
   7   8.5000E-09  5.2000E-09  2.1000E-09  1.2000E-09  2.0000E-09   0.000       0.000       0.000       0.000       0.000    
   8   5.0000E-10  5.2000E-09  2.1000E-09  1.2000E-09  5.0000E-09   0.000       0.000       0.000       0.000       0.000    
   9   5.0000E-10  5.2000E-09  2.1000E-09  1.2000E-09  5.0000E-09   0.000       0.000       0.000       0.000       0.000    
  10   5.0000E-10  5.2000E-09  2.1000E-09  1.2000E-09  5.8000E-09   0.000       0.000       0.000       0.000       0.000    
  11   1.0000E-10  1.1000E-09  1.1000E-09  1.2000E-09  5.0000E-09   0.000       0.000       0.000       0.000       0.000    
  12   1.1000E-09  1.1000E-09  1.1000E-09  1.1000E-09  2.0000E-09   0.000       0.000       0.000       0.000       0.000    
  13   1.1000E-09  2.2000E-09  2.2000E-09  2.1000E-09  1.0000E-09   0.000       0.000       0.000       0.000       0.000    
  14   2.0000E-10  5.5000E-09  5.5000E-09  5.2000E-09  1.0000E-09   0.000       0.000       0.000       0.000       0.000    
  15    0.000      8.8000E-09  8.8000E-09   0.000       0.000       0.000       0.000       0.000       0.000       0.000    

                  ET RATE =  5.000000E-08

 USING ET EXTINCTION DEPTH FROM PREVIOUS STRESS PERIOD. CURRENT PERIOD IS:      42

 USING EXTINCTION WATER CONTENT FROM PREVIOUS STRESS PERIOD. CURRENT PERIOD IS:      42

 USING AIR ENTRY PRESSURE FROM PREVIOUS STRESS PERIOD. CURRENT PERIOD IS:      42

 USING ROOT PRESSURE HEAD FROM PREVIOUS STRESS PERIOD. CURRENT PERIOD IS:      42

 USING ROOT ACTIVITY FROM PREVIOUS STRESS PERIOD. CURRENT PERIOD IS:      42

 PROCESSING AG STRESS PERIOD DATA

 READING AG STRESS PERIOD DATA

 READING IRRIGATION SEGMENT

 READING IRRIGATION WELL

 READING SUPPLEMENTAL WELL

 END PROCESSING AG STRESS PERIOD DATA OPTIONS
 
 SOLVING FOR HEAD 
                                                   Max.-Head-Change                         Max.-Flux-Residual
  Residual-Control   Outer-Iter.   Inner-Iter.     Column Row Layer    Maximum-Head-Change  Column Row Layer    Maximum-Flux-Residual          L2-NORM 
          0                 1           2             3   13     1      -0.4146237506E-02       3   13    1        -0.2451546339E+00      0.4805351339E+00
          0                 2           2             3   13     1       0.3941751629E-03       3   13    1         0.2396162503E-01      0.4717398653E-01
          0                 3           1             3   13     1      -0.2598013377E-04       4   13    1        -0.1628335278E-02      0.3220147377E-02

    ------------------------------------------------
       NWT REQUIRED            3 OUTER ITERATIONS 
       AND A TOTAL OF          5 INNER ITERATIONS.
    ------------------------------------------------

 NO OUTPUT CONTROL FOR STRESS PERIOD   42   TIME STEP    1
 
 SOLVING FOR HEAD 
                                                   Max.-Head-Change                         Max.-Flux-Residual
  Residual-Control   Outer-Iter.   Inner-Iter.     Column Row Layer    Maximum-Head-Change  Column Row Layer    Maximum-Flux-Residual          L2-NORM 
          0                 1           2             3   13     1      -0.3648850979E-02       3   13    1        -0.2156928161E+00      0.4449817368E+00
          0                 2           2             3   13     1       0.3469377174E-03       3   13    1         0.2108487666E-01      0.4373493526E-01
          0                 3           1             3   13     1      -0.2288343145E-04       3   13    1        -0.1429745976E-02      0.2991331858E-02

    ------------------------------------------------
       NWT REQUIRED            3 OUTER ITERATIONS 
       AND A TOTAL OF          5 INNER ITERATIONS.
    ------------------------------------------------

 NO OUTPUT CONTROL FOR STRESS PERIOD   42   TIME STEP    2
 
 SOLVING FOR HEAD 
                                                   Max.-Head-Change                         Max.-Flux-Residual
  Residual-Control   Outer-Iter.   Inner-Iter.     Column Row Layer    Maximum-Head-Change  Column Row Layer    Maximum-Flux-Residual          L2-NORM 
          0                 1           2             3   13     1      -0.3211892709E-02       3   13    1        -0.1898135943E+00      0.4149542310E+00
          0                 2           2             3   13     1       0.3054242843E-03       3   13    1         0.1855702524E-01      0.4083639964E-01
          0                 3           1             3   13     1      -0.2013230229E-04       3   13    1        -0.1257495563E-02      0.2797824679E-02

    ------------------------------------------------
       NWT REQUIRED            3 OUTER ITERATIONS 
       AND A TOTAL OF          5 INNER ITERATIONS.
    ------------------------------------------------

 NO OUTPUT CONTROL FOR STRESS PERIOD   42   TIME STEP    3
 
 SOLVING FOR HEAD 
                                                   Max.-Head-Change                         Max.-Flux-Residual
  Residual-Control   Outer-Iter.   Inner-Iter.     Column Row Layer    Maximum-Head-Change  Column Row Layer    Maximum-Flux-Residual          L2-NORM 
          0                 1           2             3   13     1      -0.2828044945E-02       3   13    1        -0.1670830883E+00      0.3896817607E+00
          0                 2           2             3   13     1       0.2689684193E-03       3   13    1         0.1633747655E-01      0.3840194128E-01
          0                 3           1             3   13     1      -0.1775450072E-04       3   13    1        -0.1108677930E-02      0.2636654058E-02

    ------------------------------------------------
       NWT REQUIRED            3 OUTER ITERATIONS 
       AND A TOTAL OF          5 INNER ITERATIONS.
    ------------------------------------------------

 NO OUTPUT CONTROL FOR STRESS PERIOD   42   TIME STEP    4
 
 SOLVING FOR HEAD 
                                                   Max.-Head-Change                         Max.-Flux-Residual
  Residual-Control   Outer-Iter.   Inner-Iter.     Column Row Layer    Maximum-Head-Change  Column Row Layer    Maximum-Flux-Residual          L2-NORM 
          0                 1           2             1    1     1       0.2658394284E-02       3   13    1        -0.1471154729E+00      0.3684657006E+00
          0                 2           2             1    1     1      -0.2585894053E-03       3   13    1         0.1438377678E-01      0.3635954898E-01
          0                 3           1             1    1     1       0.1760897873E-04       3   13    1        -0.9753795021E-03      0.2500834133E-02

    ------------------------------------------------
       NWT REQUIRED            3 OUTER ITERATIONS 
       AND A TOTAL OF          5 INNER ITERATIONS.
    ------------------------------------------------

 NO OUTPUT CONTROL FOR STRESS PERIOD   42   TIME STEP    5
 
 SOLVING FOR HEAD 
                                                   Max.-Head-Change                         Max.-Flux-Residual
  Residual-Control   Outer-Iter.   Inner-Iter.     Column Row Layer    Maximum-Head-Change  Column Row Layer    Maximum-Flux-Residual          L2-NORM 
          0                 1           2             1    1     1       0.2656623782E-02       1    1    1         0.1378601793E+00      0.3507077359E+00
          0                 2           2             1    1     1      -0.2584171833E-03       1    1    1        -0.1378602675E-01      0.3465625142E-01
          0                 3           1             1    1     1       0.1759725109E-04       1    1    1         0.9650222142E-03      0.2387050013E-02

    ------------------------------------------------
       NWT REQUIRED            3 OUTER ITERATIONS 
       AND A TOTAL OF          5 INNER ITERATIONS.
    ------------------------------------------------

 NO OUTPUT CONTROL FOR STRESS PERIOD   42   TIME STEP    6
 
 SOLVING FOR HEAD 
                                                   Max.-Head-Change                         Max.-Flux-Residual
  Residual-Control   Outer-Iter.   Inner-Iter.     Column Row Layer    Maximum-Head-Change  Column Row Layer    Maximum-Flux-Residual          L2-NORM 
          0                 1           2             1    1     1       0.2654858784E-02       1    1    1         0.1377683818E+00      0.3358675504E+00
          0                 2           2             1    1     1      -0.2582454966E-03       1    1    1        -0.1377684697E-01      0.3323492322E-01
          0                 3           1             1    1     1       0.1758555967E-04       1    1    1         0.9643796131E-03      0.2293504374E-02

    ------------------------------------------------
       NWT REQUIRED            3 OUTER ITERATIONS 
       AND A TOTAL OF          5 INNER ITERATIONS.
    ------------------------------------------------

 NO OUTPUT CONTROL FOR STRESS PERIOD   42   TIME STEP    7
 
 SOLVING FOR HEAD 
                                                   Max.-Head-Change                         Max.-Flux-Residual
  Residual-Control   Outer-Iter.   Inner-Iter.     Column Row Layer    Maximum-Head-Change  Column Row Layer    Maximum-Flux-Residual          L2-NORM 
          0                 1           2             1    1     1       0.2653099265E-02       1    1    1         0.1376768697E+00      0.3234757203E+00
          0                 2           2             1    1     1      -0.2580743429E-03       1    1    1        -0.1376769573E-01      0.3205073223E-01
          0                 3           1             1    1     1       0.1757390446E-04       1    1    1         0.9637390327E-03      0.2216343377E-02

    ------------------------------------------------
       NWT REQUIRED            3 OUTER ITERATIONS 
       AND A TOTAL OF          5 INNER ITERATIONS.
    ------------------------------------------------

 NO OUTPUT CONTROL FOR STRESS PERIOD   42   TIME STEP    8
 
 SOLVING FOR HEAD 
                                                   Max.-Head-Change                         Max.-Flux-Residual
  Residual-Control   Outer-Iter.   Inner-Iter.     Column Row Layer    Maximum-Head-Change  Column Row Layer    Maximum-Flux-Residual          L2-NORM 
          0                 1           2             1    1     1       0.2651345199E-02       1    1    1         0.1375856416E+00      0.3131376764E+00
          0                 2           2             1    1     1      -0.2579037196E-03       1    1    1        -0.1375857288E-01      0.3106331003E-01
          0                 3           1             1    1     1       0.1756228593E-04       1    1    1         0.9631004353E-03      0.2151415877E-02

    ------------------------------------------------
       NWT REQUIRED            3 OUTER ITERATIONS 
       AND A TOTAL OF          5 INNER ITERATIONS.
    ------------------------------------------------

 NO OUTPUT CONTROL FOR STRESS PERIOD   42   TIME STEP    9
 
 SOLVING FOR HEAD 
                                                   Max.-Head-Change                         Max.-Flux-Residual
  Residual-Control   Outer-Iter.   Inner-Iter.     Column Row Layer    Maximum-Head-Change  Column Row Layer    Maximum-Flux-Residual          L2-NORM 
          0                 1           2             1    1     1       0.2649573126E-02       1    1    1         0.1374934789E+00      0.3045057741E+00
          0                 2           2             1    1     1      -0.2577313447E-03       1    1    1        -0.1374935658E-01      0.3024016436E-01
          0                 3           1             1    1     1       0.1755054765E-04       1    1    1         0.9624552900E-03      0.2097277059E-02

    ------------------------------------------------
       NWT REQUIRED            3 OUTER ITERATIONS 
       AND A TOTAL OF          5 INNER ITERATIONS.
    ------------------------------------------------

 NO OUTPUT CONTROL FOR STRESS PERIOD   42   TIME STEP   10
 
 SOLVING FOR HEAD 
                                                   Max.-Head-Change                         Max.-Flux-Residual
  Residual-Control   Outer-Iter.   Inner-Iter.     Column Row Layer    Maximum-Head-Change  Column Row Layer    Maximum-Flux-Residual          L2-NORM 
          0                 1           2             1    1     1       0.2647829957E-02       1    1    1         0.1374028174E+00      0.2972897565E+00
          0                 2           2             1    1     1      -0.2575617816E-03       1    1    1        -0.1374029040E-01      0.2955098406E-01
          0                 3           1             1    1     1       0.1753900130E-04       1    1    1         0.9618206701E-03      0.2051455550E-02

    ------------------------------------------------
       NWT REQUIRED            3 OUTER ITERATIONS 
       AND A TOTAL OF          5 INNER ITERATIONS.
    ------------------------------------------------

 NO OUTPUT CONTROL FOR STRESS PERIOD   42   TIME STEP   11
 
 SOLVING FOR HEAD 
                                                   Max.-Head-Change                         Max.-Flux-Residual
  Residual-Control   Outer-Iter.   Inner-Iter.     Column Row Layer    Maximum-Head-Change  Column Row Layer    Maximum-Flux-Residual          L2-NORM 
          0                 1           2             1    1     1       0.2646092170E-02       1    1    1         0.1373124371E+00      0.2912445238E+00
          0                 2           2             1    1     1      -0.2573927421E-03       1    1    1        -0.1373125235E-01      0.2897611107E-01
          0                 3           1             1    1     1       0.1752749023E-04       1    1    1         0.9611880037E-03      0.2014635612E-02

    ------------------------------------------------
       NWT REQUIRED            3 OUTER ITERATIONS 
       AND A TOTAL OF          5 INNER ITERATIONS.
    ------------------------------------------------

 NO OUTPUT CONTROL FOR STRESS PERIOD   42   TIME STEP   12
 
 SOLVING FOR HEAD 
                                                   Max.-Head-Change                         Max.-Flux-Residual
  Residual-Control   Outer-Iter.   Inner-Iter.     Column Row Layer    Maximum-Head-Change  Column Row Layer    Maximum-Flux-Residual          L2-NORM 
          0                 1           2             1    1     1       0.2644336324E-02       1    1    1         0.1372211181E+00      0.2861607249E+00
          0                 2           2             1    1     1      -0.2572219456E-03       1    1    1        -0.1372212042E-01      0.2849105173E-01
          0                 3           1             1    1     1       0.1751585963E-04       1    1    1         0.9605487661E-03      0.1982378993E-02

    ------------------------------------------------
       NWT REQUIRED            3 OUTER ITERATIONS 
       AND A TOTAL OF          5 INNER ITERATIONS.
    ------------------------------------------------

 NO OUTPUT CONTROL FOR STRESS PERIOD   42   TIME STEP   13
 
 SOLVING FOR HEAD 
                                                   Max.-Head-Change                         Max.-Flux-Residual
  Residual-Control   Outer-Iter.   Inner-Iter.     Column Row Layer    Maximum-Head-Change  Column Row Layer    Maximum-Flux-Residual          L2-NORM 
          0                 1           2             1    1     1       0.2642609297E-02       1    1    1         0.1371312982E+00      0.2818745287E+00
          0                 2           2             1    1     1      -0.2570539528E-03       1    1    1        -0.1371313841E-01      0.2807315063E-01
          0                 3           1             1    1     1       0.1750442026E-04       1    1    1         0.9599200326E-03      0.1955389119E-02

    ------------------------------------------------
       NWT REQUIRED            3 OUTER ITERATIONS 
       AND A TOTAL OF          5 INNER ITERATIONS.
    ------------------------------------------------

 NO OUTPUT CONTROL FOR STRESS PERIOD   42   TIME STEP   14
 
 SOLVING FOR HEAD 
                                                   Max.-Head-Change                         Max.-Flux-Residual
  Residual-Control   Outer-Iter.   Inner-Iter.     Column Row Layer    Maximum-Head-Change  Column Row Layer    Maximum-Flux-Residual          L2-NORM 
          0                 1           2             1    1     1       0.2640887580E-02       1    1    1         0.1370417548E+00      0.2782634168E+00
          0                 2           2             1    1     1      -0.2568864757E-03       1    1    1        -0.1370418403E-01      0.2773857312E-01
          0                 3           1             1    1     1       0.1749301545E-04       1    1    1         0.9592932095E-03      0.1933629958E-02

    ------------------------------------------------
       NWT REQUIRED            3 OUTER ITERATIONS 
       AND A TOTAL OF          5 INNER ITERATIONS.
    ------------------------------------------------

 NO OUTPUT CONTROL FOR STRESS PERIOD   42   TIME STEP   15
 
 SOLVING FOR HEAD 
                                                   Max.-Head-Change                         Max.-Flux-Residual
  Residual-Control   Outer-Iter.   Inner-Iter.     Column Row Layer    Maximum-Head-Change  Column Row Layer    Maximum-Flux-Residual          L2-NORM 
          0                 1           2             1    1     1       0.2639171149E-02       1    1    1         0.1369524868E+00      0.2751848482E+00
          0                 2           2             1    1     1      -0.2567195134E-03       1    1    1        -0.1369525721E-01      0.2744573015E-01
          0                 3           1             1    1     1       0.1748164567E-04       1    1    1         0.9586683252E-03      0.1914801996E-02

    ------------------------------------------------
       NWT REQUIRED            3 OUTER ITERATIONS 
       AND A TOTAL OF          5 INNER ITERATIONS.
    ------------------------------------------------

 NO OUTPUT CONTROL FOR STRESS PERIOD   42   TIME STEP   16
 
 SOLVING FOR HEAD 
                                                   Max.-Head-Change                         Max.-Flux-Residual
  Residual-Control   Outer-Iter.   Inner-Iter.     Column Row Layer    Maximum-Head-Change  Column Row Layer    Maximum-Flux-Residual          L2-NORM 
          0                 1           2             1    1     1       0.2637436531E-02       1    1    1         0.1368622748E+00      0.2725569902E+00
          0                 2           2             1    1     1      -0.2565507822E-03       1    1    1        -0.1368623598E-01      0.2719449919E-01
          0                 3           1             1    1     1       0.1747015589E-04       1    1    1         0.9580368477E-03      0.1898013416E-02

    ------------------------------------------------
       NWT REQUIRED            3 OUTER ITERATIONS 
       AND A TOTAL OF          5 INNER ITERATIONS.
    ------------------------------------------------

 NO OUTPUT CONTROL FOR STRESS PERIOD   42   TIME STEP   17
 
 SOLVING FOR HEAD 
                                                   Max.-Head-Change                         Max.-Flux-Residual
  Residual-Control   Outer-Iter.   Inner-Iter.     Column Row Layer    Maximum-Head-Change  Column Row Layer    Maximum-Flux-Residual          L2-NORM 
          0                 1           2             1    1     1       0.2635730690E-02       1    1    1         0.1367735559E+00      0.2703060339E+00
          0                 2           2             1    1     1      -0.2563848500E-03       1    1    1        -0.1367736406E-01      0.2697905608E-01
          0                 3           1             1    1     1       0.1745885687E-04       1    1    1         0.9574158270E-03      0.1883824403E-02

    ------------------------------------------------
       NWT REQUIRED            3 OUTER ITERATIONS 
       AND A TOTAL OF          5 INNER ITERATIONS.
    ------------------------------------------------

 NO OUTPUT CONTROL FOR STRESS PERIOD   42   TIME STEP   18
 
 SOLVING FOR HEAD 
                                                   Max.-Head-Change                         Max.-Flux-Residual
  Residual-Control   Outer-Iter.   Inner-Iter.     Column Row Layer    Maximum-Head-Change  Column Row Layer    Maximum-Flux-Residual          L2-NORM 
          0                 1           2             1    1     1       0.2634006612E-02       1    1    1         0.1366838928E+00      0.2683661566E+00
          0                 2           2             1    1     1      -0.2562171435E-03       1    1    1        -0.1366839771E-01      0.2679323575E-01
          0                 3           1             1    1     1       0.1744743644E-04       1    1    1         0.9567881692E-03      0.1871728188E-02

    ------------------------------------------------
       NWT REQUIRED            3 OUTER ITERATIONS 
       AND A TOTAL OF          5 INNER ITERATIONS.
    ------------------------------------------------

 NO OUTPUT CONTROL FOR STRESS PERIOD   42   TIME STEP   19
 
 SOLVING FOR HEAD 
                                                   Max.-Head-Change                         Max.-Flux-Residual
  Residual-Control   Outer-Iter.   Inner-Iter.     Column Row Layer    Maximum-Head-Change  Column Row Layer    Maximum-Flux-Residual          L2-NORM 
          0                 1           2             1    1     1       0.2632311223E-02       1    1    1         0.1365957205E+00      0.2666829053E+00
          0                 2           2             1    1     1      -0.2560522280E-03       1    1    1        -0.1365958046E-01      0.2663195175E-01
          0                 3           1             1    1     1       0.1743620629E-04       1    1    1         0.9561709726E-03      0.1860972732E-02

    ------------------------------------------------
       NWT REQUIRED            3 OUTER ITERATIONS 
       AND A TOTAL OF          5 INNER ITERATIONS.
    ------------------------------------------------

 NO OUTPUT CONTROL FOR STRESS PERIOD   42   TIME STEP   20
 
 SOLVING FOR HEAD 
                                                   Max.-Head-Change                         Max.-Flux-Residual
  Residual-Control   Outer-Iter.   Inner-Iter.     Column Row Layer    Maximum-Head-Change  Column Row Layer    Maximum-Flux-Residual          L2-NORM 
          0                 1           2             1    1     1       0.2630621003E-02       1    1    1         0.1365078175E+00      0.2652225134E+00
          0                 2           2             1    1     1      -0.2558878154E-03       1    1    1        -0.1365079015E-01      0.2649195098E-01
          0                 3           1             1    1     1       0.1742501046E-04       1    1    1         0.9555556431E-03      0.1851741324E-02

    ------------------------------------------------
       NWT REQUIRED            3 OUTER ITERATIONS 
       AND A TOTAL OF          5 INNER ITERATIONS.
    ------------------------------------------------

 NO OUTPUT CONTROL FOR STRESS PERIOD   42   TIME STEP   21
 
 SOLVING FOR HEAD 
                                                   Max.-Head-Change                         Max.-Flux-Residual
  Residual-Control   Outer-Iter.   Inner-Iter.     Column Row Layer    Maximum-Head-Change  Column Row Layer    Maximum-Flux-Residual          L2-NORM 
          0                 1           2             1    1     1       0.2628912501E-02       1    1    1         0.1364189641E+00      0.2639417782E+00
          0                 2           2             1    1     1      -0.2557216241E-03       1    1    1        -0.1364190476E-01      0.2636834518E-01
          0                 3           1             1    1     1       0.1741369369E-04       1    1    1         0.9549336736E-03      0.1843212306E-02

    ------------------------------------------------
       NWT REQUIRED            3 OUTER ITERATIONS 
       AND A TOTAL OF          5 INNER ITERATIONS.
    ------------------------------------------------

 NO OUTPUT CONTROL FOR STRESS PERIOD   42   TIME STEP   22
 
 SOLVING FOR HEAD 
                                                   Max.-Head-Change                         Max.-Flux-Residual
  Residual-Control   Outer-Iter.   Inner-Iter.     Column Row Layer    Maximum-Head-Change  Column Row Layer    Maximum-Flux-Residual          L2-NORM 
          0                 1           2             1    1     1       0.2627232640E-02       1    1    1         0.1363315997E+00      0.2628139251E+00
          0                 2           2             1    1     1      -0.2555582187E-03       1    1    1        -0.1363316829E-01      0.2625991164E-01
          0                 3           1             1    1     1       0.1740256579E-04       1    1    1         0.9543220951E-03      0.1836494937E-02

    ------------------------------------------------
       NWT REQUIRED            3 OUTER ITERATIONS 
       AND A TOTAL OF          5 INNER ITERATIONS.
    ------------------------------------------------

 NO OUTPUT CONTROL FOR STRESS PERIOD   42   TIME STEP   23
 
 SOLVING FOR HEAD 
                                                   Max.-Head-Change                         Max.-Flux-Residual
  Residual-Control   Outer-Iter.   Inner-Iter.     Column Row Layer    Maximum-Head-Change  Column Row Layer    Maximum-Flux-Residual          L2-NORM 
          0                 1           2             1    1     1       0.2625534422E-02       1    1    1         0.1362432833E+00      0.2618214705E+00
          0                 2           2             1    1     1      -0.2553930286E-03       1    1    1        -0.1362433664E-01      0.2616388584E-01
          0                 3           1             1    1     1       0.1739131718E-04       1    1    1         0.9537038976E-03      0.1829754601E-02

    ------------------------------------------------
       NWT REQUIRED            3 OUTER ITERATIONS 
       AND A TOTAL OF          5 INNER ITERATIONS.
    ------------------------------------------------

 NO OUTPUT CONTROL FOR STRESS PERIOD   42   TIME STEP   24
 
 SOLVING FOR HEAD 
                                                   Max.-Head-Change                         Max.-Flux-Residual
  Residual-Control   Outer-Iter.   Inner-Iter.     Column Row Layer    Maximum-Head-Change  Column Row Layer    Maximum-Flux-Residual          L2-NORM 
          0                 1           2             1    1     1       0.2623864812E-02       1    1    1         0.1361564522E+00      0.2609350825E+00
          0                 2           2             1    1     1      -0.2552306202E-03       1    1    1        -0.1361565348E-01      0.2607792140E-01
          0                 3           1             1    1     1       0.1738025791E-04       1    1    1         0.9530960753E-03      0.1823914534E-02

    ------------------------------------------------
       NWT REQUIRED            3 OUTER ITERATIONS 
       AND A TOTAL OF          5 INNER ITERATIONS.
    ------------------------------------------------

 NO OUTPUT CONTROL FOR STRESS PERIOD   42   TIME STEP   25
 
 SOLVING FOR HEAD 
                                                   Max.-Head-Change                         Max.-Flux-Residual
  Residual-Control   Outer-Iter.   Inner-Iter.     Column Row Layer    Maximum-Head-Change  Column Row Layer    Maximum-Flux-Residual          L2-NORM 
          0                 1           2             1    1     1       0.2622200260E-02       1    1    1         0.1360698859E+00      0.2601437065E+00
          0                 2           2             1    1     1      -0.2550687045E-03       1    1    1        -0.1360699683E-01      0.2600152615E-01
          0                 3           1             1    1     1       0.1736923202E-04       1    1    1         0.9524901155E-03      0.1818995120E-02

    ------------------------------------------------
       NWT REQUIRED            3 OUTER ITERATIONS 
       AND A TOTAL OF          5 INNER ITERATIONS.
    ------------------------------------------------

 NO OUTPUT CONTROL FOR STRESS PERIOD   42   TIME STEP   26
 
 SOLVING FOR HEAD 
                                                   Max.-Head-Change                         Max.-Flux-Residual
  Residual-Control   Outer-Iter.   Inner-Iter.     Column Row Layer    Maximum-Head-Change  Column Row Layer    Maximum-Flux-Residual          L2-NORM 
          0                 1           2             1    1     1       0.2620517295E-02       1    1    1         0.1359823629E+00      0.2594387763E+00
          0                 2           2             1    1     1      -0.2549049974E-03       1    1    1        -0.1359824450E-01      0.2593278904E-01
          0                 3           1             1    1     1       0.1735808423E-04       1    1    1         0.9518774545E-03      0.1814233514E-02

    ------------------------------------------------
       NWT REQUIRED            3 OUTER ITERATIONS 
       AND A TOTAL OF          5 INNER ITERATIONS.
    ------------------------------------------------

 NO OUTPUT CONTROL FOR STRESS PERIOD   42   TIME STEP   27
 
 SOLVING FOR HEAD 
                                                   Max.-Head-Change                         Max.-Flux-Residual
  Residual-Control   Outer-Iter.   Inner-Iter.     Column Row Layer    Maximum-Head-Change  Column Row Layer    Maximum-Flux-Residual          L2-NORM 
          0                 1           2             1    1     1       0.2618862878E-02       1    1    1         0.1358963230E+00      0.2588004853E+00
          0                 2           2             1    1     1      -0.2547440675E-03       1    1    1        -0.1358964049E-01      0.2587070827E-01
          0                 3           1             1    1     1       0.1734712555E-04       1    1    1         0.9512751699E-03      0.1810128984E-02

    ------------------------------------------------
       NWT REQUIRED            3 OUTER ITERATIONS 
       AND A TOTAL OF          5 INNER ITERATIONS.
    ------------------------------------------------

 NO OUTPUT CONTROL FOR STRESS PERIOD   42   TIME STEP   28
 
 SOLVING FOR HEAD 
                                                   Max.-Head-Change                         Max.-Flux-Residual
  Residual-Control   Outer-Iter.   Inner-Iter.     Column Row Layer    Maximum-Head-Change  Column Row Layer    Maximum-Flux-Residual          L2-NORM 
          0                 1           2             1    1     1       0.2617189983E-02       1    1    1         0.1358093253E+00      0.2582161281E+00
          0                 2           2             1    1     1      -0.2545813400E-03       1    1    1        -0.1358094070E-01      0.2581357599E-01
          0                 3           1             1    1     1       0.1733604427E-04       1    1    1         0.9506661759E-03      0.1806147231E-02

    ------------------------------------------------
       NWT REQUIRED            3 OUTER ITERATIONS 
       AND A TOTAL OF          5 INNER ITERATIONS.
    ------------------------------------------------

 NO OUTPUT CONTROL FOR STRESS PERIOD   42   TIME STEP   29
 
 SOLVING FOR HEAD 
                                                   Max.-Head-Change                         Max.-Flux-Residual
  Residual-Control   Outer-Iter.   Inner-Iter.     Column Row Layer    Maximum-Head-Change  Column Row Layer    Maximum-Flux-Residual          L2-NORM 
          0                 1           2             1    1     1       0.2615545586E-02       1    1    1         0.1357238077E+00      0.2576943627E+00
          0                 2           2             1    1     1      -0.2544213844E-03       1    1    1        -0.1357238890E-01      0.2576273817E-01
          0                 3           1             1    1     1       0.1732515186E-04       1    1    1         0.9500675544E-03      0.1802845098E-02

    ------------------------------------------------
       NWT REQUIRED            3 OUTER ITERATIONS 
       AND A TOTAL OF          5 INNER ITERATIONS.
    ------------------------------------------------

 NO OUTPUT CONTROL FOR STRESS PERIOD   42   TIME STEP   30



 STREAM LISTING     PERIOD     42   STEP       30

 LAYER ROW COL. STREAM  RCH.  FLOW INTO     FLOW TO   FLOW OUT OF   OVRLND.     DIRECT     STREAM       STREAM     STREAM     STREAM   STREAMBED  STREAMBED
                SEG.NO.  NO.  STRM. RCH.    AQUIFER    STRM. RCH.    RUNOFF     PRECIP       ET          HEAD       DEPTH      WIDTH   CONDCTNC.   GRADIENT

   1    1    1     1     1    4.7249E+01  3.2762E-01   4.6921E+01  0.000E+00  0.000E+00  0.000E+00  1.09443E+03  1.381E+00  1.662E+01  7.477E-02  1.460E+00
   1    2    2     1     2    4.6921E+01  5.0759E-01   4.6413E+01  0.000E+00  0.000E+00  0.000E+00  1.08944E+03  1.379E+00  1.656E+01  1.159E-01  1.460E+00
   1    3    3     1     3    4.6413E+01  4.3309E-01   4.5980E+01  0.000E+00  0.000E+00  0.000E+00  1.08379E+03  1.376E+00  1.650E+01  9.898E-02  1.459E+00
   1    3    4     1     4    4.5980E+01  3.9899E-01   4.5581E+01  0.000E+00  0.000E+00  0.000E+00  1.07878E+03  1.373E+00  1.644E+01  9.124E-02  1.458E+00
   1    4    5     2     1    4.3581E+01  3.6514E-01   4.3216E+01  0.000E+00  0.000E+00  0.000E+00  1.07362E+03  1.681E+00  1.200E+01  7.800E-02  1.560E+00
   1    5    6     2     2    4.3216E+01  2.8042E-01   4.2936E+01  0.000E+00  0.000E+00  0.000E+00  1.06818E+03  1.674E+00  1.200E+01  6.000E-02  1.558E+00
   1    6    6     2     3    4.2936E+01  2.8003E-01   4.2656E+01  0.000E+00  0.000E+00  0.000E+00  1.06346E+03  1.667E+00  1.200E+01  6.000E-02  1.556E+00
   1    7    6     2     4    4.2656E+01  2.7964E-01   4.2376E+01  0.000E+00  0.000E+00  0.000E+00  1.05874E+03  1.661E+00  1.200E+01  6.000E-02  1.554E+00
   1    8    6     2     5    4.2376E+01  2.7924E-01   4.2097E+01  0.000E+00  0.000E+00  0.000E+00  1.05401E+03  1.654E+00  1.200E+01  6.000E-02  1.551E+00
   1    3    5     3     1    2.0000E+00  2.8252E-01   1.7175E+00  0.000E+00  0.000E+00  0.000E+00  1.07555E+03  1.909E+00  9.636E+00  7.227E-02  1.955E+00
   1    3    6     3     2    1.7175E+00  2.4905E-01   1.4684E+00  0.000E+00  0.000E+00  0.000E+00  1.07264E+03  1.727E+00  8.909E+00  6.682E-02  1.864E+00
   1    3    7     3     3    1.4684E+00  1.9718E-01   1.2712E+00  0.000E+00  0.000E+00  0.000E+00  1.06987E+03  1.555E+00  8.218E+00  5.547E-02  1.777E+00
   1    4    8     3     4    1.2712E+00  2.2567E-01   1.0456E+00  0.000E+00  0.000E+00  0.000E+00  1.06682E+03  1.364E+00  7.455E+00  6.709E-02  1.682E+00
   1    5    8     3     5    1.0456E+00  1.5790E-01   8.8768E-01  0.000E+00  0.000E+00  0.000E+00  1.06362E+03  1.164E+00  6.655E+00  4.991E-02  1.582E+00
   1    6    8     3     6    8.8768E-01  5.5980E-02   8.3170E-01  0.000E+00  0.000E+00  0.000E+00  1.06158E+03  1.036E+00  6.145E+00  1.844E-02  1.518E+00
   1    5   10     4     1    1.0000E+01  9.0919E-02   9.9091E+00  0.000E+00  0.000E+00  0.000E+00  1.07836E+03  6.368E-01  1.000E+01  2.500E-02  1.212E+00
   1    5    9     4     2    9.9091E+00  1.8158E-01   9.7275E+00  0.000E+00  0.000E+00  0.000E+00  1.07154E+03  6.315E-01  1.000E+01  5.000E-02  1.211E+00
   1    6    8     4     3    9.7275E+00  1.2689E-01   9.6006E+00  0.000E+00  0.000E+00  0.000E+00  1.06381E+03  6.256E-01  1.000E+01  3.500E-02  1.209E+00
   1    6    8     5     1    1.0432E+01  2.2686E-01   1.0205E+01  0.000E+00  0.000E+00  0.000E+00  1.05868E+03  6.790E-01  1.542E+01  6.166E-02  1.226E+00
   1    7    7     5     2    1.0205E+01  2.7894E-01   9.9265E+00  0.000E+00  0.000E+00  0.000E+00  1.05417E+03  6.732E-01  1.519E+01  7.594E-02  1.224E+00
   1    8    7     5     3    9.9265E+00  1.9221E-01   9.7343E+00  0.000E+00  0.000E+00  0.000E+00  1.04992E+03  6.676E-01  1.497E+01  5.241E-02  1.223E+00
   1    8    6     5     4    9.7343E+00  1.3577E-01   9.5985E+00  0.000E+00  0.000E+00  0.000E+00  1.04691E+03  6.637E-01  1.482E+01  3.706E-02  1.221E+00
   1    9    6     6     1    5.1695E+01  2.9310E-01   5.1402E+01  0.000E+00  0.000E+00  0.000E+00  1.04461E+03  1.885E+00  1.200E+01  6.000E-02  1.628E+00
   1   10    7     6     2    5.1402E+01  2.9271E-01   5.1110E+01  0.000E+00  0.000E+00  0.000E+00  1.04006E+03  1.879E+00  1.200E+01  6.000E-02  1.626E+00
   1   11    7     6     3    5.1110E+01  2.9233E-01   5.0817E+01  0.000E+00  0.000E+00  0.000E+00  1.03551E+03  1.872E+00  1.200E+01  6.000E-02  1.624E+00
   1   12    7     6     4    5.0817E+01  2.9194E-01   5.0525E+01  0.000E+00  0.000E+00  0.000E+00  1.03096E+03  1.866E+00  1.200E+01  6.000E-02  1.622E+00
   1   13    7     6     5    5.0525E+01  1.3364E-02   5.0512E+01  0.000E+00  0.000E+00  0.000E+00  1.02777E+03  1.862E+00  1.200E+01  2.400E-02  1.856E-01
   1   14    9     7     1    1.5000E+02  1.3322E+00   1.4867E+02  0.000E+00  0.000E+00  0.000E+00  1.03987E+03  2.288E+00  5.529E+01  5.593E-01  7.940E-01
   1   13    8     7     2    1.4867E+02  1.8028E+00   1.4686E+02  0.000E+00  0.000E+00  0.000E+00  1.03478E+03  2.279E+00  5.526E+01  6.148E-01  9.775E-01
   1   13    7     7     3    1.4686E+02  1.3826E+00   1.4548E+02  0.000E+00  0.000E+00  0.000E+00  1.02969E+03  2.271E+00  5.522E+01  5.585E-01  8.252E-01
   1   13    6     8     1    1.9599E+02  9.3145E-01   1.9506E+02  0.000E+00  0.000E+00  0.000E+00  1.02499E+03  3.111E+00  4.511E+01  4.597E-01  6.754E-01
   1   13    5     8     2    1.9506E+02  1.4501E-01   1.9492E+02  0.000E+00  0.000E+00  0.000E+00  1.01873E+03  3.108E+00  4.507E+01  4.592E-01  1.053E-01
   1   13    4     8     3    1.9492E+02 -2.5392E+00   1.9746E+02  0.000E+00  0.000E+00  0.000E+00  1.01249E+03  3.115E+00  4.517E+01  4.603E+00 -1.839E-01
   1   13    3     8     4    1.9746E+02 -3.6475E+00   2.0110E+02  0.000E+00  0.000E+00  0.000E+00  1.00626E+03  3.133E+00  4.544E+01  4.630E+00 -2.626E-01
   1   13    2     8     5    2.0110E+02 -2.5805E+00   2.0369E+02  0.000E+00  0.000E+00  0.000E+00  1.00003E+03  3.152E+00  4.570E+01  4.657E+00 -1.847E-01
   1   13    1     8     6    2.0369E+02 -1.9993E+00   2.0568E+02  0.000E+00  0.000E+00  0.000E+00  9.95040E+02  3.165E+00  4.589E+01  2.806E+00 -2.375E-01
   1    8    6     9     1    0.0000E+00  0.0000E+00   0.0000E+00  0.000E+00  0.000E+00  0.000E+00  1.07875E+03  0.000E+00  4.000E+00  0.000E+00  1.000E+00
   1    8    5     9     2    0.0000E+00  0.0000E+00   0.0000E+00  0.000E+00  0.000E+00  0.000E+00  1.07825E+03  0.000E+00  4.000E+00  0.000E+00  1.000E+00





UNSATURATED ZONE PACKAGE VOLUMETRIC BUDGET FOR  TIME STEP    30 STRESS PERIOD   42
  ------------------------------------------------------------------------------



     CUMULATIVE VOLUMES      L**3       RATES FOR THIS TIME STEP      L**3/T
     ------------------                 ------------------------

           IN:                                      IN:
           ---                                      ---
        INFILTRATION =   476182750.5427          INFILTRATION =           4.4075

          OUT:                                     OUT:
          ----                                     ----
              UZF ET =   347902707.1594                UZF ET =           4.4075
        UZF RECHARGE =     2053800.1856          UZF RECHARGE =       0.0000E+00

            IN - OUT =   126226243.1977              IN - OUT =       0.0000E+00

          STORAGE:                                 STORAGE:
          --------                                 --------
      STORAGE CHANGE =   126228454.0494        STORAGE CHANGE =      -9.4781E-14

 PERCENT DISCREPANCY IS DIFFERENCE BETWEEN IN-OUT MINUS CHANGE IN STORAGE
 DIVIDED BY THE AVERAGE OF IN AND OUT TIMES 100

 PERCENT DISCREPANCY =          -0.00     PERCENT DISCREPANCY =           0.00






1
  VOLUMETRIC BUDGET FOR ENTIRE MODEL AT END OF TIME STEP   30, STRESS PERIOD  42
  ------------------------------------------------------------------------------

     CUMULATIVE VOLUMES      L**3       RATES FOR THIS TIME STEP      L**3/T
     ------------------                 ------------------------

           IN:                                      IN:
           ---                                      ---
               AG WELLS  =           0.0000                 AG WELLS  =           0.0000
        DIVERSION SEGMEN =      848802.5000          DIVERSION SEGMEN =           0.0000
    TS         GW IRRIGA =           0.0000      TS         GW IRRIGA =           0.0000
    TION         SW IRRI =           0.0000      TION         SW IRRI =           0.0000
    GATION      SYSTEM L =           0.0000      GATION      SYSTEM L =           0.0000
    OSSES GW      SYSTEM =           0.1856      OSSES GW      SYSTEM =           0.0000

                TOTAL IN =      848802.6875                  TOTAL IN =           0.0000

          OUT:                                     OUT:
          ----                                     ----
               AG WELLS  =           0.0000                 AG WELLS  =           0.0000
        DIVERSION SEGMEN =           0.0000          DIVERSION SEGMEN =           0.0000
    TS         GW IRRIGA =           0.0000      TS         GW IRRIGA =           0.0000
    TION         SW IRRI =      848819.6875      TION         SW IRRI =           0.0000
    GATION      SYSTEM L =           0.0000      GATION      SYSTEM L =           0.0000
    OSSES GW      SYSTEM =           0.0000      OSSES GW      SYSTEM =           0.0000

               TOTAL OUT =      848819.6875                 TOTAL OUT =           0.0000

                IN - OUT =         -17.0000                  IN - OUT =           0.0000

     PERCENT DISCREPANCY =          -0.00         PERCENT DISCREPANCY =           0.00



1
  VOLUMETRIC BUDGET FOR ENTIRE MODEL AT END OF TIME STEP   30, STRESS PERIOD  42
  ------------------------------------------------------------------------------

     CUMULATIVE VOLUMES      L**3       RATES FOR THIS TIME STEP      L**3/T
     ------------------                 ------------------------

           IN:                                      IN:
           ---                                      ---
             STORAGE     =    53412708.0000               STORAGE     =           0.1006
       CONSTANT HEAD     =           0.0000         CONSTANT HEAD     =           0.0000
     HEAD DEP BOUNDS     =    30822314.0000       HEAD DEP BOUNDS     =           0.2855
      STREAM LEAKAGE     =  1289981824.0000        STREAM LEAKAGE     =          12.3308
        UZF RECHARGE     =     2053800.1250          UZF RECHARGE     =           0.0000
               GW ET     =           0.0000                 GW ET     =           0.0000
     SURFACE LEAKAGE     =           0.0000       SURFACE LEAKAGE     =           0.0000
           AG WELLS      =           0.0000             AG WELLS      =           0.0000

                TOTAL IN =  1376270592.0000                  TOTAL IN =          12.7169

          OUT:                                     OUT:
          ----                                     ----
             STORAGE     =   166761312.0000               STORAGE     =           1.4455
       CONSTANT HEAD     =           0.0000         CONSTANT HEAD     =           0.0000
     HEAD DEP BOUNDS     =    31561804.0000       HEAD DEP BOUNDS     =           0.2946
      STREAM LEAKAGE     =  1160067200.0000        STREAM LEAKAGE     =          10.7665
        UZF RECHARGE     =           0.0000          UZF RECHARGE     =           0.0000
               GW ET     =    17902180.0000                 GW ET     =           0.2107
     SURFACE LEAKAGE     =           0.0000       SURFACE LEAKAGE     =           0.0000
           AG WELLS      =           0.0000             AG WELLS      =           0.0000

               TOTAL OUT =  1376292480.0000                 TOTAL OUT =          12.7173

                IN - OUT =      -21888.0000                  IN - OUT =      -3.7956E-04

     PERCENT DISCREPANCY =          -0.00         PERCENT DISCREPANCY =          -0.00






         TIME SUMMARY AT END OF TIME STEP   30 IN STRESS PERIOD   42
                    SECONDS     MINUTES      HOURS       DAYS        YEARS
                    -----------------------------------------------------------
   TIME STEP LENGTH  87667.      1461.1      24.352      1.0147     2.77799E-03
 STRESS PERIOD TIME 2.63000E+06  43833.      730.56      30.440     8.33397E-02
         TOTAL TIME 1.07916E+08 1.79859E+06  29977.      1249.0      3.4196    
1
1
                            STRESS PERIOD NO.   43, LENGTH =   2630000.    
                            -----------------------------------------------

                              NUMBER OF TIME STEPS =    30

                               MULTIPLIER FOR DELT =     1.000

                            INITIAL TIME STEP SIZE =   87666.66    

 REUSING NON-PARAMETER GHB CELLS FROM LAST STRESS PERIOD

      2 GHB CELLS

 REUSING STREAM SEGMENT DATA FROM LAST STRESS PERIOD



            AREAL INFILTRATION RATE
 READING ON UNIT   19 WITH FORMAT: (10F4.0)            

            1           2           3           4           5           6           7           8           9          10
 ........................................................................................................................
   1   1.2000E-09   0.000       0.000       0.000       0.000       0.000       0.000       0.000       0.000       0.000    
   2   2.1000E-09  2.0000E-09  8.0000E-10  8.5000E-09   0.000       0.000       0.000       0.000       0.000       0.000    
   3   5.0000E-10  1.1000E-09  8.8000E-09  5.5000E-09   0.000       0.000       0.000       0.000       0.000       0.000    
   4   8.5000E-09  1.1000E-09  1.1000E-09  1.1000E-09  2.0000E-09   0.000       0.000       0.000       0.000       0.000    
   5   8.5000E-09  1.1000E-09  1.1000E-09  1.1000E-09  1.1000E-09   0.000       0.000       0.000       0.000       0.000    
   6   8.5000E-09  5.2000E-09  2.1000E-09  1.1000E-09  1.5000E-09   0.000       0.000       0.000       0.000       0.000    
   7   8.5000E-09  5.2000E-09  2.1000E-09  1.2000E-09  2.0000E-09   0.000       0.000       0.000       0.000       0.000    
   8   5.0000E-10  5.2000E-09  2.1000E-09  1.2000E-09  5.0000E-09   0.000       0.000       0.000       0.000       0.000    
   9   5.0000E-10  5.2000E-09  2.1000E-09  1.2000E-09  5.0000E-09   0.000       0.000       0.000       0.000       0.000    
  10   5.0000E-10  5.2000E-09  2.1000E-09  1.2000E-09  5.8000E-09   0.000       0.000       0.000       0.000       0.000    
  11   1.0000E-10  1.1000E-09  1.1000E-09  1.2000E-09  5.0000E-09   0.000       0.000       0.000       0.000       0.000    
  12   1.1000E-09  1.1000E-09  1.1000E-09  1.1000E-09  2.0000E-09   0.000       0.000       0.000       0.000       0.000    
  13   1.1000E-09  2.2000E-09  2.2000E-09  2.1000E-09  1.0000E-09   0.000       0.000       0.000       0.000       0.000    
  14   2.0000E-10  5.5000E-09  5.5000E-09  5.2000E-09  1.0000E-09   0.000       0.000       0.000       0.000       0.000    
  15    0.000      8.8000E-09  8.8000E-09   0.000       0.000       0.000       0.000       0.000       0.000       0.000    

                  ET RATE =  1.500000E-07

 USING ET EXTINCTION DEPTH FROM PREVIOUS STRESS PERIOD. CURRENT PERIOD IS:      43

 USING EXTINCTION WATER CONTENT FROM PREVIOUS STRESS PERIOD. CURRENT PERIOD IS:      43

 USING AIR ENTRY PRESSURE FROM PREVIOUS STRESS PERIOD. CURRENT PERIOD IS:      43

 USING ROOT PRESSURE HEAD FROM PREVIOUS STRESS PERIOD. CURRENT PERIOD IS:      43

 USING ROOT ACTIVITY FROM PREVIOUS STRESS PERIOD. CURRENT PERIOD IS:      43

 PROCESSING AG STRESS PERIOD DATA

 READING AG STRESS PERIOD DATA

 READING IRRIGATION SEGMENT

 READING IRRIGATION WELL

 READING SUPPLEMENTAL WELL

 END PROCESSING AG STRESS PERIOD DATA OPTIONS
 
 SOLVING FOR HEAD 
                                                   Max.-Head-Change                         Max.-Flux-Residual
  Residual-Control   Outer-Iter.   Inner-Iter.     Column Row Layer    Maximum-Head-Change  Column Row Layer    Maximum-Flux-Residual          L2-NORM 
          0                 1           2             3   13     1      -0.3756461883E-02       3   13    1        -0.2402734462E+00      0.4129370725E+00
          0                 2           2             3   13     1       0.3579784310E-03       3   13    1         0.2354244575E-01      0.4086886647E-01
          0                 3           1             3   13     1      -0.2368879119E-04       3   13    1        -0.1601756016E-02      0.2823012861E-02

    ------------------------------------------------
       NWT REQUIRED            3 OUTER ITERATIONS 
       AND A TOTAL OF          5 INNER ITERATIONS.
    ------------------------------------------------

 NO OUTPUT CONTROL FOR STRESS PERIOD   43   TIME STEP    1
 
 SOLVING FOR HEAD 
                                                   Max.-Head-Change                         Max.-Flux-Residual
  Residual-Control   Outer-Iter.   Inner-Iter.     Column Row Layer    Maximum-Head-Change  Column Row Layer    Maximum-Flux-Residual          L2-NORM 
          0                 1           2             3   13     1      -0.4141316629E-02       3   13    1        -0.2640338199E+00      0.4493696768E+00
          0                 2           2             3   13     1       0.3943443094E-03       3   13    1         0.2584929156E-01      0.4423796032E-01
          0                 3           1             3   13     1      -0.2606423218E-04       3   13    1        -0.1756478543E-02      0.3033671021E-02

    ------------------------------------------------
       NWT REQUIRED            3 OUTER ITERATIONS 
       AND A TOTAL OF          5 INNER ITERATIONS.
    ------------------------------------------------

 NO OUTPUT CONTROL FOR STRESS PERIOD   43   TIME STEP    2
 
 SOLVING FOR HEAD 
                                                   Max.-Head-Change                         Max.-Flux-Residual
  Residual-Control   Outer-Iter.   Inner-Iter.     Column Row Layer    Maximum-Head-Change  Column Row Layer    Maximum-Flux-Residual          L2-NORM 
          0                 1           2             3   13     1      -0.3380261052E-02       3   13    1        -0.2154007865E+00      0.3939764802E+00
          0                 2           2             3   13     1       0.3218754249E-03       3   13    1         0.2108797552E-01      0.3882952648E-01
          0                 3           1             3   13     1      -0.2127523101E-04       3   13    1        -0.1433040945E-02      0.2665552910E-02

    ------------------------------------------------
       NWT REQUIRED            3 OUTER ITERATIONS 
       AND A TOTAL OF          5 INNER ITERATIONS.
    ------------------------------------------------

 NO OUTPUT CONTROL FOR STRESS PERIOD   43   TIME STEP    3
 
 SOLVING FOR HEAD 
                                                   Max.-Head-Change                         Max.-Flux-Residual
  Residual-Control   Outer-Iter.   Inner-Iter.     Column Row Layer    Maximum-Head-Change  Column Row Layer    Maximum-Flux-Residual          L2-NORM 
          0                 1           2             3   13     1      -0.2760668076E-02       3   13    1        -0.1758139549E+00      0.3521503689E+00
          0                 2           2             3   13     1       0.2629012128E-03       3   13    1         0.1721386557E-01      0.3476081554E-01
          0                 3           1             3   13     1      -0.1738069611E-04       3   13    1        -0.1169996272E-02      0.2391508577E-02

    ------------------------------------------------
       NWT REQUIRED            3 OUTER ITERATIONS 
       AND A TOTAL OF          5 INNER ITERATIONS.
    ------------------------------------------------

 NO OUTPUT CONTROL FOR STRESS PERIOD   43   TIME STEP    4
 
 SOLVING FOR HEAD 
                                                   Max.-Head-Change                         Max.-Flux-Residual
  Residual-Control   Outer-Iter.   Inner-Iter.     Column Row Layer    Maximum-Head-Change  Column Row Layer    Maximum-Flux-Residual          L2-NORM 
          0                 1           2             1    1     1       0.2377930983E-02       3   13    1        -0.1435876139E+00      0.3210014199E+00
          0                 2           2             1    1     1      -0.2313079264E-03       3   13    1         0.1405869237E-01      0.3173984643E-01
          0                 3           1             1    1     1       0.1575121164E-04       3   13    1        -0.9553752552E-03      0.2188771121E-02

    ------------------------------------------------
       NWT REQUIRED            3 OUTER ITERATIONS 
       AND A TOTAL OF          5 INNER ITERATIONS.
    ------------------------------------------------

 NO OUTPUT CONTROL FOR STRESS PERIOD   43   TIME STEP    5
 
 SOLVING FOR HEAD 
                                                   Max.-Head-Change                         Max.-Flux-Residual
  Residual-Control   Outer-Iter.   Inner-Iter.     Column Row Layer    Maximum-Head-Change  Column Row Layer    Maximum-Flux-Residual          L2-NORM 
          0                 1           2             1    1     1       0.2376677916E-02       1    1    1         0.1233147560E+00      0.2980896374E+00
          0                 2           2             1    1     1      -0.2311860365E-03       1    1    1        -0.1233148128E-01      0.2952582952E-01
          0                 3           1             1    1     1       0.1574291080E-04       1    1    1         0.8632039982E-03      0.2073636023E-02

    ------------------------------------------------
       NWT REQUIRED            3 OUTER ITERATIONS 
       AND A TOTAL OF          5 INNER ITERATIONS.
    ------------------------------------------------

 NO OUTPUT CONTROL FOR STRESS PERIOD   43   TIME STEP    6
 
 SOLVING FOR HEAD 
                                                   Max.-Head-Change                         Max.-Flux-Residual
  Residual-Control   Outer-Iter.   Inner-Iter.     Column Row Layer    Maximum-Head-Change  Column Row Layer    Maximum-Flux-Residual          L2-NORM 
          0                 1           2             1    1     1       0.2375451534E-02       1    1    1         0.1232510063E+00      0.2813818777E+00
          0                 2           2             1    1     1      -0.2310667427E-03       1    1    1        -0.1232510630E-01      0.2791843905E-01
          0                 3           1             1    1     1       0.1573478770E-04       1    1    1         0.8627577576E-03      0.1934213465E-02

    ------------------------------------------------
       NWT REQUIRED            3 OUTER ITERATIONS 
       AND A TOTAL OF          5 INNER ITERATIONS.
    ------------------------------------------------

 NO OUTPUT CONTROL FOR STRESS PERIOD   43   TIME STEP    7
 
 SOLVING FOR HEAD 
                                                   Max.-Head-Change                         Max.-Flux-Residual
  Residual-Control   Outer-Iter.   Inner-Iter.     Column Row Layer    Maximum-Head-Change  Column Row Layer    Maximum-Flux-Residual          L2-NORM 
          0                 1           2             1    1     1       0.2374228260E-02       1    1    1         0.1231874207E+00      0.2692474047E+00
          0                 2           2             1    1     1      -0.2309477514E-03       1    1    1        -0.1231874772E-01      0.2675361433E-01
          0                 3           1             1    1     1       0.1572668496E-04       1    1    1         0.8623126551E-03      0.1857144071E-02

    ------------------------------------------------
       NWT REQUIRED            3 OUTER ITERATIONS 
       AND A TOTAL OF          5 INNER ITERATIONS.
    ------------------------------------------------

 NO OUTPUT CONTROL FOR STRESS PERIOD   43   TIME STEP    8
 
 SOLVING FOR HEAD 
                                                   Max.-Head-Change                         Max.-Flux-Residual
  Residual-Control   Outer-Iter.   Inner-Iter.     Column Row Layer    Maximum-Head-Change  Column Row Layer    Maximum-Flux-Residual          L2-NORM 
          0                 1           2             1    1     1       0.2373008110E-02       1    1    1         0.1231239962E+00      0.2604271652E+00
          0                 2           2             1    1     1      -0.2308290636E-03       1    1    1        -0.1231240526E-01      0.2590970417E-01
          0                 3           1             1    1     1       0.1571860256E-04       1    1    1         0.8618686773E-03      0.1801633207E-02

    ------------------------------------------------
       NWT REQUIRED            3 OUTER ITERATIONS 
       AND A TOTAL OF          5 INNER ITERATIONS.
    ------------------------------------------------

 NO OUTPUT CONTROL FOR STRESS PERIOD   43   TIME STEP    9
 
 SOLVING FOR HEAD 
                                                   Max.-Head-Change                         Max.-Flux-Residual
  Residual-Control   Outer-Iter.   Inner-Iter.     Column Row Layer    Maximum-Head-Change  Column Row Layer    Maximum-Flux-Residual          L2-NORM 
          0                 1           2             1    1     1       0.2371767580E-02       1    1    1         0.1230595138E+00      0.2539743196E+00
          0                 2           2             1    1     1      -0.2307083945E-03       1    1    1        -0.1230595703E-01      0.2529445638E-01
          0                 3           1             1    1     1       0.1571038574E-04       1    1    1         0.8614173247E-03      0.1760974839E-02

    ------------------------------------------------
       NWT REQUIRED            3 OUTER ITERATIONS 
       AND A TOTAL OF          5 INNER ITERATIONS.
    ------------------------------------------------

 NO OUTPUT CONTROL FOR STRESS PERIOD   43   TIME STEP   10
 
 SOLVING FOR HEAD 
                                                   Max.-Head-Change                         Max.-Flux-Residual
  Residual-Control   Outer-Iter.   Inner-Iter.     Column Row Layer    Maximum-Head-Change  Column Row Layer    Maximum-Flux-Residual          L2-NORM 
          0                 1           2             1    1     1       0.2370553653E-02       1    1    1         0.1229964145E+00      0.2492021347E+00
          0                 2           2             1    1     1      -0.2305903119E-03       1    1    1        -0.1229964706E-01      0.2483957683E-01
          0                 3           1             1    1     1       0.1570234477E-04       1    1    1         0.8609756250E-03      0.1730908707E-02

    ------------------------------------------------
       NWT REQUIRED            3 OUTER ITERATIONS 
       AND A TOTAL OF          5 INNER ITERATIONS.
    ------------------------------------------------

 NO OUTPUT CONTROL FOR STRESS PERIOD   43   TIME STEP   11
 
 SOLVING FOR HEAD 
                                                   Max.-Head-Change                         Max.-Flux-Residual
  Residual-Control   Outer-Iter.   Inner-Iter.     Column Row Layer    Maximum-Head-Change  Column Row Layer    Maximum-Flux-Residual          L2-NORM 
          0                 1           2             1    1     1       0.2369342820E-02       1    1    1         0.1229334747E+00      0.2456160895E+00
          0                 2           2             1    1     1      -0.2304725304E-03       1    1    1        -0.1229335307E-01      0.2449890248E-01
          0                 3           1             1    1     1       0.1569432391E-04       1    1    1         0.8605350267E-03      0.1709355102E-02

    ------------------------------------------------
       NWT REQUIRED            3 OUTER ITERATIONS 
       AND A TOTAL OF          5 INNER ITERATIONS.
    ------------------------------------------------

 NO OUTPUT CONTROL FOR STRESS PERIOD   43   TIME STEP   12
 
 SOLVING FOR HEAD 
                                                   Max.-Head-Change                         Max.-Flux-Residual
  Residual-Control   Outer-Iter.   Inner-Iter.     Column Row Layer    Maximum-Head-Change  Column Row Layer    Maximum-Flux-Residual          L2-NORM 
          0                 1           2             1    1     1       0.2368111570E-02       1    1    1         0.1228694751E+00      0.2428702791E+00
          0                 2           2             1    1     1      -0.2303527632E-03       1    1    1        -0.1228695309E-01      0.2423730858E-01
          0                 3           1             1    1     1       0.1568616839E-04       1    1    1         0.8600870331E-03      0.1692171831E-02

    ------------------------------------------------
       NWT REQUIRED            3 OUTER ITERATIONS 
       AND A TOTAL OF          5 INNER ITERATIONS.
    ------------------------------------------------

 NO OUTPUT CONTROL FOR STRESS PERIOD   43   TIME STEP   13
 
 SOLVING FOR HEAD 
                                                   Max.-Head-Change                         Max.-Flux-Residual
  Residual-Control   Outer-Iter.   Inner-Iter.     Column Row Layer    Maximum-Head-Change  Column Row Layer    Maximum-Flux-Residual          L2-NORM 
          0                 1           2             1    1     1       0.2366906923E-02       1    1    1         0.1228068572E+00      0.2407333157E+00
          0                 2           2             1    1     1      -0.2302355836E-03       1    1    1        -0.1228069128E-01      0.2403369047E-01
          0                 3           1             1    1     1       0.1567818895E-04       1    1    1         0.8596487019E-03      0.1678563442E-02

    ------------------------------------------------
       NWT REQUIRED            3 OUTER ITERATIONS 
       AND A TOTAL OF          5 INNER ITERATIONS.
    ------------------------------------------------

 NO OUTPUT CONTROL FOR STRESS PERIOD   43   TIME STEP   14
 
 SOLVING FOR HEAD 
                                                   Max.-Head-Change                         Max.-Flux-Residual
  Residual-Control   Outer-Iter.   Inner-Iter.     Column Row Layer    Maximum-Head-Change  Column Row Layer    Maximum-Flux-Residual          L2-NORM 
          0                 1           2             1    1     1       0.2365681837E-02       1    1    1         0.1227431782E+00      0.2390261841E+00
          0                 2           2             1    1     1      -0.2301164161E-03       1    1    1        -0.1227432338E-01      0.2387084504E-01
          0                 3           1             1    1     1       0.1567007389E-04       1    1    1         0.8592029607E-03      0.1667809559E-02

    ------------------------------------------------
       NWT REQUIRED            3 OUTER ITERATIONS 
       AND A TOTAL OF          5 INNER ITERATIONS.
    ------------------------------------------------

 NO OUTPUT CONTROL FOR STRESS PERIOD   43   TIME STEP   15
 
 SOLVING FOR HEAD 
                                                   Max.-Head-Change                         Max.-Flux-Residual
  Residual-Control   Outer-Iter.   Inner-Iter.     Column Row Layer    Maximum-Head-Change  Column Row Layer    Maximum-Flux-Residual          L2-NORM 
          0                 1           2             1    1     1       0.2364483335E-02       1    1    1         0.1226808800E+00      0.2376412736E+00
          0                 2           2             1    1     1      -0.2299998343E-03       1    1    1        -0.1226809355E-01      0.2373843375E-01
          0                 3           1             1    1     1       0.1566213540E-04       1    1    1         0.8587668690E-03      0.1659042647E-02

    ------------------------------------------------
       NWT REQUIRED            3 OUTER ITERATIONS 
       AND A TOTAL OF          5 INNER ITERATIONS.
    ------------------------------------------------

 NO OUTPUT CONTROL FOR STRESS PERIOD   43   TIME STEP   16
 
 SOLVING FOR HEAD 
                                                   Max.-Head-Change                         Max.-Flux-Residual
  Residual-Control   Outer-Iter.   Inner-Iter.     Column Row Layer    Maximum-Head-Change  Column Row Layer    Maximum-Flux-Residual          L2-NORM 
          0                 1           2             1    1     1       0.2363287846E-02       1    1    1         0.1226187399E+00      0.2364865765E+00
          0                 2           2             1    1     1      -0.2298835456E-03       1    1    1        -0.1226187952E-01      0.2362756304E-01
          0                 3           1             1    1     1       0.1565421678E-04       1    1    1         0.8583318962E-03      0.1651922273E-02

    ------------------------------------------------
       NWT REQUIRED            3 OUTER ITERATIONS 
       AND A TOTAL OF          5 INNER ITERATIONS.
    ------------------------------------------------

 NO OUTPUT CONTROL FOR STRESS PERIOD   43   TIME STEP   17
 
 SOLVING FOR HEAD 
                                                   Max.-Head-Change                         Max.-Flux-Residual
  Residual-Control   Outer-Iter.   Inner-Iter.     Column Row Layer    Maximum-Head-Change  Column Row Layer    Maximum-Flux-Residual          L2-NORM 
          0                 1           2             1    1     1       0.2362071881E-02       1    1    1         0.1225555356E+00      0.2355179741E+00
          0                 2           2             1    1     1      -0.2297652652E-03       1    1    1        -0.1225555906E-01      0.2353442388E-01
          0                 3           1             1    1     1       0.1564616208E-04       1    1    1         0.8578894662E-03      0.1645698701E-02

    ------------------------------------------------
       NWT REQUIRED            3 OUTER ITERATIONS 
       AND A TOTAL OF          5 INNER ITERATIONS.
    ------------------------------------------------

 NO OUTPUT CONTROL FOR STRESS PERIOD   43   TIME STEP   18
 
 SOLVING FOR HEAD 
                                                   Max.-Head-Change                         Max.-Flux-Residual
  Residual-Control   Outer-Iter.   Inner-Iter.     Column Row Layer    Maximum-Head-Change  Column Row Layer    Maximum-Flux-Residual          L2-NORM 
          0                 1           2             1    1     1       0.2360882474E-02       1    1    1         0.1224937105E+00      0.2346808451E+00
          0                 2           2             1    1     1      -0.2296495680E-03       1    1    1        -0.1224937655E-01      0.2345408728E-01
          0                 3           1             1    1     1       0.1563828347E-04       1    1    1         0.8574566786E-03      0.1640371422E-02

    ------------------------------------------------
       NWT REQUIRED            3 OUTER ITERATIONS 
       AND A TOTAL OF          5 INNER ITERATIONS.
    ------------------------------------------------

 NO OUTPUT CONTROL FOR STRESS PERIOD   43   TIME STEP   19
 
 SOLVING FOR HEAD 
                                                   Max.-Head-Change                         Max.-Flux-Residual
  Residual-Control   Outer-Iter.   Inner-Iter.     Column Row Layer    Maximum-Head-Change  Column Row Layer    Maximum-Flux-Residual          L2-NORM 
          0                 1           2             1    1     1       0.2359672549E-02       1    1    1         0.1224308214E+00      0.2339591163E+00
          0                 2           2             1    1     1      -0.2295318750E-03       1    1    1        -0.1224308762E-01      0.2338293422E-01
          0                 3           1             1    1     1       0.1563026900E-04       1    1    1         0.8570164524E-03      0.1635806287E-02

    ------------------------------------------------
       NWT REQUIRED            3 OUTER ITERATIONS 
       AND A TOTAL OF          5 INNER ITERATIONS.
    ------------------------------------------------

 NO OUTPUT CONTROL FOR STRESS PERIOD   43   TIME STEP   20
 
 SOLVING FOR HEAD 
                                                   Max.-Head-Change                         Max.-Flux-Residual
  Residual-Control   Outer-Iter.   Inner-Iter.     Column Row Layer    Maximum-Head-Change  Column Row Layer    Maximum-Flux-Residual          L2-NORM 
          0                 1           2             1    1     1       0.2358489182E-02       1    1    1         0.1223693097E+00      0.2333250067E+00
          0                 2           2             1    1     1      -0.2294167656E-03       1    1    1        -0.1223693645E-01      0.2332274535E-01
          0                 3           1             1    1     1       0.1562243038E-04       1    1    1         0.8565858680E-03      0.1631792792E-02

    ------------------------------------------------
       NWT REQUIRED            3 OUTER ITERATIONS 
       AND A TOTAL OF          5 INNER ITERATIONS.
    ------------------------------------------------

 NO OUTPUT CONTROL FOR STRESS PERIOD   43   TIME STEP   21
 
 SOLVING FOR HEAD 
                                                   Max.-Head-Change                         Max.-Flux-Residual
  Residual-Control   Outer-Iter.   Inner-Iter.     Column Row Layer    Maximum-Head-Change  Column Row Layer    Maximum-Flux-Residual          L2-NORM 
          0                 1           2             1    1     1       0.2357308775E-02       1    1    1         0.1223079543E+00      0.2327614367E+00
          0                 2           2             1    1     1      -0.2293019440E-03       1    1    1        -0.1223080090E-01      0.2326804140E-01
          0                 3           1             1    1     1       0.1561461164E-04       1    1    1         0.8561563789E-03      0.1627960409E-02

    ------------------------------------------------
       NWT REQUIRED            3 OUTER ITERATIONS 
       AND A TOTAL OF          5 INNER ITERATIONS.
    ------------------------------------------------

 NO OUTPUT CONTROL FOR STRESS PERIOD   43   TIME STEP   22
 
 SOLVING FOR HEAD 
                                                   Max.-Head-Change                         Max.-Flux-Residual
  Residual-Control   Outer-Iter.   Inner-Iter.     Column Row Layer    Maximum-Head-Change  Column Row Layer    Maximum-Flux-Residual          L2-NORM 
          0                 1           2             1    1     1       0.2356107860E-02       1    1    1         0.1222455316E+00      0.2322560077E+00
          0                 2           2             1    1     1      -0.2291851277E-03       1    1    1        -0.1222455861E-01      0.2321877728E-01
          0                 3           1             1    1     1       0.1560665705E-04       1    1    1         0.8557194255E-03      0.1624661303E-02

    ------------------------------------------------
       NWT REQUIRED            3 OUTER ITERATIONS 
       AND A TOTAL OF          5 INNER ITERATIONS.
    ------------------------------------------------

 NO OUTPUT CONTROL FOR STRESS PERIOD   43   TIME STEP   23
 
 SOLVING FOR HEAD 
                                                   Max.-Head-Change                         Max.-Flux-Residual
  Residual-Control   Outer-Iter.   Inner-Iter.     Column Row Layer    Maximum-Head-Change  Column Row Layer    Maximum-Flux-Residual          L2-NORM 
          0                 1           2             1    1     1       0.2354933431E-02       1    1    1         0.1221844873E+00      0.2318028681E+00
          0                 2           2             1    1     1      -0.2290708873E-03       1    1    1        -0.1221845416E-01      0.2317444507E-01
          0                 3           1             1    1     1       0.1559887760E-04       1    1    1         0.8552921118E-03      0.1621732219E-02

    ------------------------------------------------
       NWT REQUIRED            3 OUTER ITERATIONS 
       AND A TOTAL OF          5 INNER ITERATIONS.
    ------------------------------------------------

 NO OUTPUT CONTROL FOR STRESS PERIOD   43   TIME STEP   24
 
 SOLVING FOR HEAD 
                                                   Max.-Head-Change                         Max.-Flux-Residual
  Residual-Control   Outer-Iter.   Inner-Iter.     Column Row Layer    Maximum-Head-Change  Column Row Layer    Maximum-Flux-Residual          L2-NORM 
          0                 1           2             1    1     1       0.2353738452E-02       1    1    1         0.1221223743E+00      0.2313883026E+00
          0                 2           2             1    1     1      -0.2289546485E-03       1    1    1        -0.1221224286E-01      0.2313393457E-01
          0                 3           1             1    1     1       0.1559096206E-04       1    1    1         0.8548573218E-03      0.1618795796E-02

    ------------------------------------------------
       NWT REQUIRED            3 OUTER ITERATIONS 
       AND A TOTAL OF          5 INNER ITERATIONS.
    ------------------------------------------------

 NO OUTPUT CONTROL FOR STRESS PERIOD   43   TIME STEP   25
 
 SOLVING FOR HEAD 
                                                   Max.-Head-Change                         Max.-Flux-Residual
  Residual-Control   Outer-Iter.   Inner-Iter.     Column Row Layer    Maximum-Head-Change  Column Row Layer    Maximum-Flux-Residual          L2-NORM 
          0                 1           2             1    1     1       0.2352569959E-02       1    1    1         0.1220616379E+00      0.2310122326E+00
          0                 2           2             1    1     1      -0.2288409857E-03       1    1    1        -0.1220616920E-01      0.2309693684E-01
          0                 3           1             1    1     1       0.1558322214E-04       1    1    1         0.8544321683E-03      0.1616293491E-02

    ------------------------------------------------
       NWT REQUIRED            3 OUTER ITERATIONS 
       AND A TOTAL OF          5 INNER ITERATIONS.
    ------------------------------------------------

 NO OUTPUT CONTROL FOR STRESS PERIOD   43   TIME STEP   26
 
 SOLVING FOR HEAD 
                                                   Max.-Head-Change                         Max.-Flux-Residual
  Residual-Control   Outer-Iter.   Inner-Iter.     Column Row Layer    Maximum-Head-Change  Column Row Layer    Maximum-Flux-Residual          L2-NORM 
          0                 1           2             1    1     1       0.2351380866E-02       1    1    1         0.1219998326E+00      0.2306707079E+00
          0                 2           2             1    1     1      -0.2287253191E-03       1    1    1        -0.1219998865E-01      0.2306311013E-01
          0                 3           1             1    1     1       0.1557534565E-04       1    1    1         0.8539995315E-03      0.1613687879E-02

    ------------------------------------------------
       NWT REQUIRED            3 OUTER ITERATIONS 
       AND A TOTAL OF          5 INNER ITERATIONS.
    ------------------------------------------------

 NO OUTPUT CONTROL FOR STRESS PERIOD   43   TIME STEP   27
 
 SOLVING FOR HEAD 
                                                   Max.-Head-Change                         Max.-Flux-Residual
  Residual-Control   Outer-Iter.   Inner-Iter.     Column Row Layer    Maximum-Head-Change  Column Row Layer    Maximum-Flux-Residual          L2-NORM 
          0                 1           2             1    1     1       0.2350218268E-02       1    1    1         0.1219394015E+00      0.2303535764E+00
          0                 2           2             1    1     1      -0.2286122295E-03       1    1    1        -0.1219394551E-01      0.2303225313E-01
          0                 3           1             1    1     1       0.1556764430E-04       1    1    1         0.8535765001E-03      0.1611929418E-02

    ------------------------------------------------
       NWT REQUIRED            3 OUTER ITERATIONS 
       AND A TOTAL OF          5 INNER ITERATIONS.
    ------------------------------------------------

 NO OUTPUT CONTROL FOR STRESS PERIOD   43   TIME STEP   28
 
 SOLVING FOR HEAD 
                                                   Max.-Head-Change                         Max.-Flux-Residual
  Residual-Control   Outer-Iter.   Inner-Iter.     Column Row Layer    Maximum-Head-Change  Column Row Layer    Maximum-Flux-Residual          L2-NORM 
          0                 1           2             1    1     1       0.2349035047E-02       1    1    1         0.1218779017E+00      0.2300535641E+00
          0                 2           2             1    1     1      -0.2284971342E-03       1    1    1        -0.1218779553E-01      0.2300272187E-01
          0                 3           1             1    1     1       0.1555980711E-04       1    1    1         0.8531460033E-03      0.1610020909E-02

    ------------------------------------------------
       NWT REQUIRED            3 OUTER ITERATIONS 
       AND A TOTAL OF          5 INNER ITERATIONS.
    ------------------------------------------------

 NO OUTPUT CONTROL FOR STRESS PERIOD   43   TIME STEP   29
 
 SOLVING FOR HEAD 
                                                   Max.-Head-Change                         Max.-Flux-Residual
  Residual-Control   Outer-Iter.   Inner-Iter.     Column Row Layer    Maximum-Head-Change  Column Row Layer    Maximum-Flux-Residual          L2-NORM 
          0                 1           2             1    1     1       0.2347878302E-02       1    1    1         0.1218177752E+00      0.2297858026E+00
          0                 2           2             1    1     1      -0.2283846143E-03       1    1    1        -0.1218178286E-01      0.2297620413E-01
          0                 3           1             1    1     1       0.1555214481E-04       1    1    1         0.8527251172E-03      0.1608017900E-02

    ------------------------------------------------
       NWT REQUIRED            3 OUTER ITERATIONS 
       AND A TOTAL OF          5 INNER ITERATIONS.
    ------------------------------------------------

 NO OUTPUT CONTROL FOR STRESS PERIOD   43   TIME STEP   30



 STREAM LISTING     PERIOD     43   STEP       30

 LAYER ROW COL. STREAM  RCH.  FLOW INTO     FLOW TO   FLOW OUT OF   OVRLND.     DIRECT     STREAM       STREAM     STREAM     STREAM   STREAMBED  STREAMBED
                SEG.NO.  NO.  STRM. RCH.    AQUIFER    STRM. RCH.    RUNOFF     PRECIP       ET          HEAD       DEPTH      WIDTH   CONDCTNC.   GRADIENT

   1    1    1     1     1    4.3499E+01  3.1564E-01   4.3183E+01  0.000E+00  0.000E+00  0.000E+00  1.09440E+03  1.356E+00  1.610E+01  7.246E-02  1.452E+00
   1    2    2     1     2    4.3183E+01  4.8894E-01   4.2694E+01  0.000E+00  0.000E+00  0.000E+00  1.08941E+03  1.354E+00  1.604E+01  1.123E-01  1.451E+00
   1    3    3     1     3    4.2694E+01  4.1710E-01   4.2277E+01  0.000E+00  0.000E+00  0.000E+00  1.08377E+03  1.350E+00  1.598E+01  9.588E-02  1.450E+00
   1    3    4     1     4    4.2277E+01  3.8418E-01   4.1893E+01  0.000E+00  0.000E+00  0.000E+00  1.07876E+03  1.347E+00  1.592E+01  8.837E-02  1.449E+00
   1    4    5     2     1    3.9893E+01  3.5834E-01   3.9534E+01  0.000E+00  0.000E+00  0.000E+00  1.07353E+03  1.594E+00  1.200E+01  7.800E-02  1.531E+00
   1    5    6     2     2    3.9534E+01  2.7519E-01   3.9259E+01  0.000E+00  0.000E+00  0.000E+00  1.06810E+03  1.586E+00  1.200E+01  6.000E-02  1.529E+00
   1    6    6     2     3    3.9259E+01  2.7479E-01   3.8985E+01  0.000E+00  0.000E+00  0.000E+00  1.06337E+03  1.580E+00  1.200E+01  6.000E-02  1.527E+00
   1    7    6     2     4    3.8985E+01  2.7439E-01   3.8710E+01  0.000E+00  0.000E+00  0.000E+00  1.05865E+03  1.573E+00  1.200E+01  6.000E-02  1.524E+00
   1    8    6     2     5    3.8710E+01  2.7399E-01   3.8436E+01  0.000E+00  0.000E+00  0.000E+00  1.05392E+03  1.566E+00  1.200E+01  6.000E-02  1.522E+00
   1    3    5     3     1    2.0000E+00  2.8252E-01   1.7175E+00  0.000E+00  0.000E+00  0.000E+00  1.07555E+03  1.909E+00  9.636E+00  7.227E-02  1.955E+00
   1    3    6     3     2    1.7175E+00  2.4905E-01   1.4684E+00  0.000E+00  0.000E+00  0.000E+00  1.07264E+03  1.727E+00  8.909E+00  6.682E-02  1.864E+00
   1    3    7     3     3    1.4684E+00  1.9718E-01   1.2712E+00  0.000E+00  0.000E+00  0.000E+00  1.06987E+03  1.555E+00  8.218E+00  5.547E-02  1.777E+00
   1    4    8     3     4    1.2712E+00  2.2567E-01   1.0456E+00  0.000E+00  0.000E+00  0.000E+00  1.06682E+03  1.364E+00  7.455E+00  6.709E-02  1.682E+00
   1    5    8     3     5    1.0456E+00  1.5790E-01   8.8768E-01  0.000E+00  0.000E+00  0.000E+00  1.06362E+03  1.164E+00  6.655E+00  4.991E-02  1.582E+00
   1    6    8     3     6    8.8768E-01  5.5980E-02   8.3170E-01  0.000E+00  0.000E+00  0.000E+00  1.06158E+03  1.036E+00  6.145E+00  1.844E-02  1.518E+00
   1    5   10     4     1    1.0000E+01  9.0919E-02   9.9091E+00  0.000E+00  0.000E+00  0.000E+00  1.07836E+03  6.368E-01  1.000E+01  2.500E-02  1.212E+00
   1    5    9     4     2    9.9091E+00  1.8158E-01   9.7275E+00  0.000E+00  0.000E+00  0.000E+00  1.07154E+03  6.315E-01  1.000E+01  5.000E-02  1.211E+00
   1    6    8     4     3    9.7275E+00  1.2689E-01   9.6006E+00  0.000E+00  0.000E+00  0.000E+00  1.06381E+03  6.256E-01  1.000E+01  3.500E-02  1.209E+00
   1    6    8     5     1    1.0432E+01  2.2686E-01   1.0205E+01  0.000E+00  0.000E+00  0.000E+00  1.05868E+03  6.790E-01  1.542E+01  6.166E-02  1.226E+00
   1    7    7     5     2    1.0205E+01  2.7894E-01   9.9265E+00  0.000E+00  0.000E+00  0.000E+00  1.05417E+03  6.732E-01  1.519E+01  7.594E-02  1.224E+00
   1    8    7     5     3    9.9265E+00  1.9221E-01   9.7343E+00  0.000E+00  0.000E+00  0.000E+00  1.04992E+03  6.676E-01  1.497E+01  5.241E-02  1.223E+00
   1    8    6     5     4    9.7343E+00  1.3577E-01   9.5985E+00  0.000E+00  0.000E+00  0.000E+00  1.04691E+03  6.637E-01  1.482E+01  3.706E-02  1.221E+00
   1    9    6     6     1    4.8035E+01  2.8821E-01   4.7746E+01  0.000E+00  0.000E+00  0.000E+00  1.04453E+03  1.804E+00  1.200E+01  6.000E-02  1.601E+00
   1   10    7     6     2    4.7746E+01  2.8782E-01   4.7459E+01  0.000E+00  0.000E+00  0.000E+00  1.03998E+03  1.797E+00  1.200E+01  6.000E-02  1.599E+00
   1   11    7     6     3    4.7459E+01  2.8743E-01   4.7171E+01  0.000E+00  0.000E+00  0.000E+00  1.03543E+03  1.790E+00  1.200E+01  6.000E-02  1.597E+00
   1   12    7     6     4    4.7171E+01  2.8704E-01   4.6884E+01  0.000E+00  0.000E+00  0.000E+00  1.03087E+03  1.784E+00  1.200E+01  6.000E-02  1.595E+00
   1   13    7     6     5    4.6884E+01  1.1337E-02   4.6873E+01  0.000E+00  0.000E+00  0.000E+00  1.02769E+03  1.781E+00  1.200E+01  2.400E-02  1.575E-01
   1   14    9     7     1    1.5000E+02  1.3322E+00   1.4867E+02  0.000E+00  0.000E+00  0.000E+00  1.03987E+03  2.288E+00  5.529E+01  5.593E-01  7.940E-01
   1   13    8     7     2    1.4867E+02  1.8012E+00   1.4687E+02  0.000E+00  0.000E+00  0.000E+00  1.03478E+03  2.279E+00  5.526E+01  6.148E-01  9.766E-01
   1   13    7     7     3    1.4687E+02  1.3811E+00   1.4549E+02  0.000E+00  0.000E+00  0.000E+00  1.02969E+03  2.271E+00  5.522E+01  5.585E-01  8.243E-01
   1   13    6     8     1    1.9236E+02  9.1693E-01   1.9144E+02  0.000E+00  0.000E+00  0.000E+00  1.02496E+03  3.089E+00  4.480E+01  4.565E-01  6.695E-01
   1   13    5     8     2    1.9144E+02  1.3804E-01   1.9130E+02  0.000E+00  0.000E+00  0.000E+00  1.01871E+03  3.086E+00  4.475E+01  4.560E-01  1.009E-01
   1   13    4     8     3    1.9130E+02 -2.5184E+00   1.9382E+02  0.000E+00  0.000E+00  0.000E+00  1.01247E+03  3.093E+00  4.485E+01  4.571E+00 -1.837E-01
   1   13    3     8     4    1.9382E+02 -3.6099E+00   1.9743E+02  0.000E+00  0.000E+00  0.000E+00  1.00624E+03  3.112E+00  4.512E+01  4.598E+00 -2.617E-01
   1   13    2     8     5    1.9743E+02 -2.5745E+00   2.0001E+02  0.000E+00  0.000E+00  0.000E+00  1.00001E+03  3.130E+00  4.539E+01  4.625E+00 -1.855E-01
   1   13    1     8     6    2.0001E+02 -1.9913E+00   2.0200E+02  0.000E+00  0.000E+00  0.000E+00  9.95019E+02  3.144E+00  4.558E+01  2.787E+00 -2.382E-01
   1    8    6     9     1    0.0000E+00  0.0000E+00   0.0000E+00  0.000E+00  0.000E+00  0.000E+00  1.07875E+03  0.000E+00  4.000E+00  0.000E+00  1.000E+00
   1    8    5     9     2    0.0000E+00  0.0000E+00   0.0000E+00  0.000E+00  0.000E+00  0.000E+00  1.07825E+03  0.000E+00  4.000E+00  0.000E+00  1.000E+00





UNSATURATED ZONE PACKAGE VOLUMETRIC BUDGET FOR  TIME STEP    30 STRESS PERIOD   43
  ------------------------------------------------------------------------------



     CUMULATIVE VOLUMES      L**3       RATES FOR THIS TIME STEP      L**3/T
     ------------------                 ------------------------

           IN:                                      IN:
           ---                                      ---
        INFILTRATION =   487774475.1008          INFILTRATION =           4.4075

          OUT:                                     OUT:
          ----                                     ----
              UZF ET =   359494431.7175                UZF ET =           4.4075
        UZF RECHARGE =     2053800.1856          UZF RECHARGE =       0.0000E+00

            IN - OUT =   126226243.1977              IN - OUT =       0.0000E+00

          STORAGE:                                 STORAGE:
          --------                                 --------
      STORAGE CHANGE =   126228454.0494        STORAGE CHANGE =      -1.8259E-15

 PERCENT DISCREPANCY IS DIFFERENCE BETWEEN IN-OUT MINUS CHANGE IN STORAGE
 DIVIDED BY THE AVERAGE OF IN AND OUT TIMES 100

 PERCENT DISCREPANCY =          -0.00     PERCENT DISCREPANCY =           0.00






1
  VOLUMETRIC BUDGET FOR ENTIRE MODEL AT END OF TIME STEP   30, STRESS PERIOD  43
  ------------------------------------------------------------------------------

     CUMULATIVE VOLUMES      L**3       RATES FOR THIS TIME STEP      L**3/T
     ------------------                 ------------------------

           IN:                                      IN:
           ---                                      ---
               AG WELLS  =           0.0000                 AG WELLS  =           0.0000
        DIVERSION SEGMEN =      848802.5000          DIVERSION SEGMEN =           0.0000
    TS         GW IRRIGA =           0.0000      TS         GW IRRIGA =           0.0000
    TION         SW IRRI =           0.0000      TION         SW IRRI =           0.0000
    GATION      SYSTEM L =           0.0000      GATION      SYSTEM L =           0.0000
    OSSES GW      SYSTEM =           0.1856      OSSES GW      SYSTEM =           0.0000

                TOTAL IN =      848802.6875                  TOTAL IN =           0.0000

          OUT:                                     OUT:
          ----                                     ----
               AG WELLS  =           0.0000                 AG WELLS  =           0.0000
        DIVERSION SEGMEN =           0.0000          DIVERSION SEGMEN =           0.0000
    TS         GW IRRIGA =           0.0000      TS         GW IRRIGA =           0.0000
    TION         SW IRRI =      848819.6875      TION         SW IRRI =           0.0000
    GATION      SYSTEM L =           0.0000      GATION      SYSTEM L =           0.0000
    OSSES GW      SYSTEM =           0.0000      OSSES GW      SYSTEM =           0.0000

               TOTAL OUT =      848819.6875                 TOTAL OUT =           0.0000

                IN - OUT =         -17.0000                  IN - OUT =           0.0000

     PERCENT DISCREPANCY =          -0.00         PERCENT DISCREPANCY =           0.00



1
  VOLUMETRIC BUDGET FOR ENTIRE MODEL AT END OF TIME STEP   30, STRESS PERIOD  43
  ------------------------------------------------------------------------------

     CUMULATIVE VOLUMES      L**3       RATES FOR THIS TIME STEP      L**3/T
     ------------------                 ------------------------

           IN:                                      IN:
           ---                                      ---
             STORAGE     =    54043092.0000               STORAGE     =       9.0248E-02
       CONSTANT HEAD     =           0.0000         CONSTANT HEAD     =           0.0000
     HEAD DEP BOUNDS     =    31573214.0000       HEAD DEP BOUNDS     =           0.2855
      STREAM LEAKAGE     =  1322064000.0000        STREAM LEAKAGE     =          12.1953
        UZF RECHARGE     =     2053800.1250          UZF RECHARGE     =           0.0000
               GW ET     =           0.0000                 GW ET     =           0.0000
     SURFACE LEAKAGE     =           0.0000       SURFACE LEAKAGE     =           0.0000
           AG WELLS      =           0.0000             AG WELLS      =           0.0000

                TOTAL IN =  1409734016.0000                  TOTAL IN =          12.5710

          OUT:                                     OUT:
          ----                                     ----
             STORAGE     =   170188400.0000               STORAGE     =           1.2778
       CONSTANT HEAD     =           0.0000         CONSTANT HEAD     =           0.0000
     HEAD DEP BOUNDS     =    32335394.0000       HEAD DEP BOUNDS     =           0.2939
      STREAM LEAKAGE     =  1188382208.0000        STREAM LEAKAGE     =          10.6942
        UZF RECHARGE     =           0.0000          UZF RECHARGE     =           0.0000
               GW ET     =    18850864.0000                 GW ET     =           0.3055
     SURFACE LEAKAGE     =           0.0000       SURFACE LEAKAGE     =           0.0000
           AG WELLS      =           0.0000             AG WELLS      =           0.0000

               TOTAL OUT =  1409756800.0000                 TOTAL OUT =          12.5714

                IN - OUT =      -22784.0000                  IN - OUT =      -3.3569E-04

     PERCENT DISCREPANCY =          -0.00         PERCENT DISCREPANCY =          -0.00






         TIME SUMMARY AT END OF TIME STEP   30 IN STRESS PERIOD   43
                    SECONDS     MINUTES      HOURS       DAYS        YEARS
                    -----------------------------------------------------------
   TIME STEP LENGTH  87667.      1461.1      24.352      1.0147     2.77799E-03
 STRESS PERIOD TIME 2.63000E+06  43833.      730.56      30.440     8.33397E-02
         TOTAL TIME 1.10545E+08 1.84242E+06  30707.      1279.5      3.5030    
1
1
                            STRESS PERIOD NO.   44, LENGTH =   2630000.    
                            -----------------------------------------------

                              NUMBER OF TIME STEPS =    30

                               MULTIPLIER FOR DELT =     1.000

                            INITIAL TIME STEP SIZE =   87666.66    

 REUSING NON-PARAMETER GHB CELLS FROM LAST STRESS PERIOD

      2 GHB CELLS

 REUSING STREAM SEGMENT DATA FROM LAST STRESS PERIOD



            AREAL INFILTRATION RATE
 READING ON UNIT   19 WITH FORMAT: (10F4.0)            

            1           2           3           4           5           6           7           8           9          10
 ........................................................................................................................
   1   1.2000E-09   0.000       0.000       0.000       0.000       0.000       0.000       0.000       0.000       0.000    
   2   2.1000E-09  2.0000E-09  8.0000E-10  8.5000E-09   0.000       0.000       0.000       0.000       0.000       0.000    
   3   5.0000E-10  1.1000E-09  8.8000E-09  5.5000E-09   0.000       0.000       0.000       0.000       0.000       0.000    
   4   8.5000E-09  1.1000E-09  1.1000E-09  1.1000E-09  2.0000E-09   0.000       0.000       0.000       0.000       0.000    
   5   8.5000E-09  1.1000E-09  1.1000E-09  1.1000E-09  1.1000E-09   0.000       0.000       0.000       0.000       0.000    
   6   8.5000E-09  5.2000E-09  2.1000E-09  1.1000E-09  1.5000E-09   0.000       0.000       0.000       0.000       0.000    
   7   8.5000E-09  5.2000E-09  2.1000E-09  1.2000E-09  2.0000E-09   0.000       0.000       0.000       0.000       0.000    
   8   5.0000E-10  5.2000E-09  2.1000E-09  1.2000E-09  5.0000E-09   0.000       0.000       0.000       0.000       0.000    
   9   5.0000E-10  5.2000E-09  2.1000E-09  1.2000E-09  5.0000E-09   0.000       0.000       0.000       0.000       0.000    
  10   5.0000E-10  5.2000E-09  2.1000E-09  1.2000E-09  5.8000E-09   0.000       0.000       0.000       0.000       0.000    
  11   1.0000E-10  1.1000E-09  1.1000E-09  1.2000E-09  5.0000E-09   0.000       0.000       0.000       0.000       0.000    
  12   1.1000E-09  1.1000E-09  1.1000E-09  1.1000E-09  2.0000E-09   0.000       0.000       0.000       0.000       0.000    
  13   1.1000E-09  2.2000E-09  2.2000E-09  2.1000E-09  1.0000E-09   0.000       0.000       0.000       0.000       0.000    
  14   2.0000E-10  5.5000E-09  5.5000E-09  5.2000E-09  1.0000E-09   0.000       0.000       0.000       0.000       0.000    
  15    0.000      8.8000E-09  8.8000E-09   0.000       0.000       0.000       0.000       0.000       0.000       0.000    

                  ET RATE =  4.000000E-07

 USING ET EXTINCTION DEPTH FROM PREVIOUS STRESS PERIOD. CURRENT PERIOD IS:      44

 USING EXTINCTION WATER CONTENT FROM PREVIOUS STRESS PERIOD. CURRENT PERIOD IS:      44

 USING AIR ENTRY PRESSURE FROM PREVIOUS STRESS PERIOD. CURRENT PERIOD IS:      44

 USING ROOT PRESSURE HEAD FROM PREVIOUS STRESS PERIOD. CURRENT PERIOD IS:      44

 USING ROOT ACTIVITY FROM PREVIOUS STRESS PERIOD. CURRENT PERIOD IS:      44

 PROCESSING AG STRESS PERIOD DATA

 READING AG STRESS PERIOD DATA

 READING IRRIGATION SEGMENT

 READING IRRIGATION WELL

 READING SUPPLEMENTAL WELL

 END PROCESSING AG STRESS PERIOD DATA OPTIONS
 
 SOLVING FOR HEAD 
                                                   Max.-Head-Change                         Max.-Flux-Residual
  Residual-Control   Outer-Iter.   Inner-Iter.     Column Row Layer    Maximum-Head-Change  Column Row Layer    Maximum-Flux-Residual          L2-NORM 
          0                 1           2             3   13     1      -0.3658333169E-02       3   13    1        -0.2754866490E+00      0.4338015354E+00
          0                 2           2             3   13     1       0.3497523917E-03       3   13    1         0.2707961816E-01      0.4296559266E-01
          0                 3           1             3   13     1      -0.2324509093E-04       3   13    1        -0.1850409837E-02      0.2969518718E-02

    ------------------------------------------------
       NWT REQUIRED            3 OUTER ITERATIONS 
       AND A TOTAL OF          5 INNER ITERATIONS.
    ------------------------------------------------

 NO OUTPUT CONTROL FOR STRESS PERIOD   44   TIME STEP    1
 
 SOLVING FOR HEAD 
                                                   Max.-Head-Change                         Max.-Flux-Residual
  Residual-Control   Outer-Iter.   Inner-Iter.     Column Row Layer    Maximum-Head-Change  Column Row Layer    Maximum-Flux-Residual          L2-NORM 
          0                 1           2             3   13     1      -0.2526825971E-02       3   13    1        -0.1902010425E+00      0.3422393412E+00
          0                 2           2             3   13     1       0.2415763744E-03       3   13    1         0.1869624481E-01      0.3396396259E-01
          0                 3           1             3   13     1      -0.1606141315E-04       3   13    1        -0.1278017076E-02      0.2353963314E-02

    ------------------------------------------------
       NWT REQUIRED            3 OUTER ITERATIONS 
       AND A TOTAL OF          5 INNER ITERATIONS.
    ------------------------------------------------

 NO OUTPUT CONTROL FOR STRESS PERIOD   44   TIME STEP    2
 
 SOLVING FOR HEAD 
                                                   Max.-Head-Change                         Max.-Flux-Residual
  Residual-Control   Outer-Iter.   Inner-Iter.     Column Row Layer    Maximum-Head-Change  Column Row Layer    Maximum-Flux-Residual          L2-NORM 
          0                 1           2             1    1     1       0.2344378360E-02       3   13    1        -0.1313688120E+00      0.2887211237E+00
          0                 2           2             1    1     1      -0.2280441650E-03       3   13    1         0.1291303633E-01      0.2871707436E-01
          0                 3           1             1    1     1       0.1552896148E-04       3   13    1        -0.8821650881E-03      0.1995954808E-02

    ------------------------------------------------
       NWT REQUIRED            3 OUTER ITERATIONS 
       AND A TOTAL OF          5 INNER ITERATIONS.
    ------------------------------------------------

 NO OUTPUT CONTROL FOR STRESS PERIOD   44   TIME STEP    3
 
 SOLVING FOR HEAD 
                                                   Max.-Head-Change                         Max.-Flux-Residual
  Residual-Control   Outer-Iter.   Inner-Iter.     Column Row Layer    Maximum-Head-Change  Column Row Layer    Maximum-Flux-Residual          L2-NORM 
          0                 1           2             1    1     1       0.2343233183E-02       1    1    1         0.1215763349E+00      0.2593831460E+00
          0                 2           2             1    1     1      -0.2279327699E-03       1    1    1        -0.1215763877E-01      0.2584994674E-01
          0                 3           1             1    1     1       0.1552137539E-04       1    1    1         0.8510350179E-03      0.1801481514E-02

    ------------------------------------------------
       NWT REQUIRED            3 OUTER ITERATIONS 
       AND A TOTAL OF          5 INNER ITERATIONS.
    ------------------------------------------------

 NO OUTPUT CONTROL FOR STRESS PERIOD   44   TIME STEP    4
 
 SOLVING FOR HEAD 
                                                   Max.-Head-Change                         Max.-Flux-Residual
  Residual-Control   Outer-Iter.   Inner-Iter.     Column Row Layer    Maximum-Head-Change  Column Row Layer    Maximum-Flux-Residual          L2-NORM 
          0                 1           2             1    1     1       0.2342067331E-02       1    1    1         0.1215157379E+00      0.2441033820E+00
          0                 2           2             1    1     1      -0.2278193642E-03       1    1    1        -0.1215157905E-01      0.2436074609E-01
          0                 3           1             1    1     1       0.1551365369E-04       1    1    1         0.8506108607E-03      0.1700881143E-02

    ------------------------------------------------
       NWT REQUIRED            3 OUTER ITERATIONS 
       AND A TOTAL OF          5 INNER ITERATIONS.
    ------------------------------------------------

 NO OUTPUT CONTROL FOR STRESS PERIOD   44   TIME STEP    5
 
 SOLVING FOR HEAD 
                                                   Max.-Head-Change                         Max.-Flux-Residual
  Residual-Control   Outer-Iter.   Inner-Iter.     Column Row Layer    Maximum-Head-Change  Column Row Layer    Maximum-Flux-Residual          L2-NORM 
          0                 1           2             1    1     1       0.2184824404E-02       1    1    1         0.1133472060E+00      0.2615723286E+00
          0                 2           2             1    1     1      -0.2125238947E-03       1    1    1        -0.1133472451E-01      0.2597557482E-01
          0                 3           1             1    1     1       0.1447208894E-04       1    1    1         0.7934310323E-03      0.1801510548E-02

    ------------------------------------------------
       NWT REQUIRED            3 OUTER ITERATIONS 
       AND A TOTAL OF          5 INNER ITERATIONS.
    ------------------------------------------------

 NO OUTPUT CONTROL FOR STRESS PERIOD   44   TIME STEP    6
 
 SOLVING FOR HEAD 
                                                   Max.-Head-Change                         Max.-Flux-Residual
  Residual-Control   Outer-Iter.   Inner-Iter.     Column Row Layer    Maximum-Head-Change  Column Row Layer    Maximum-Flux-Residual          L2-NORM 
          0                 1           2             1    1     1       0.2147894927E-02       1    1    1         0.1114287860E+00      0.2511677980E+00
          0                 2           2             1    1     1      -0.2089316589E-03       1    1    1        -0.1114288222E-01      0.2495438201E-01
          0                 3           1             1    1     1       0.1422747078E-04       1    1    1         0.7800020540E-03      0.1731767789E-02

    ------------------------------------------------
       NWT REQUIRED            3 OUTER ITERATIONS 
       AND A TOTAL OF          5 INNER ITERATIONS.
    ------------------------------------------------

 NO OUTPUT CONTROL FOR STRESS PERIOD   44   TIME STEP    7
 
 SOLVING FOR HEAD 
                                                   Max.-Head-Change                         Max.-Flux-Residual
  Residual-Control   Outer-Iter.   Inner-Iter.     Column Row Layer    Maximum-Head-Change  Column Row Layer    Maximum-Flux-Residual          L2-NORM 
          0                 1           2             1    1     1       0.2147078314E-02       1    1    1         0.1113863749E+00      0.2376541239E+00
          0                 2           2             1    1     1      -0.2088522246E-03       1    1    1        -0.1113864109E-01      0.2365636173E-01
          0                 3           1             1    1     1       0.1422206185E-04       1    1    1         0.7797051840E-03      0.1645730500E-02

    ------------------------------------------------
       NWT REQUIRED            3 OUTER ITERATIONS 
       AND A TOTAL OF          5 INNER ITERATIONS.
    ------------------------------------------------

 NO OUTPUT CONTROL FOR STRESS PERIOD   44   TIME STEP    8
 
 SOLVING FOR HEAD 
                                                   Max.-Head-Change                         Max.-Flux-Residual
  Residual-Control   Outer-Iter.   Inner-Iter.     Column Row Layer    Maximum-Head-Change  Column Row Layer    Maximum-Flux-Residual          L2-NORM 
          0                 1           2             1    1     1       0.2146263069E-02       1    1    1         0.1113440353E+00      0.2300315410E+00
          0                 2           2             1    1     1      -0.2087729233E-03       1    1    1        -0.1113440712E-01      0.2292711508E-01
          0                 3           1             1    1     1       0.1421666144E-04       1    1    1         0.7794087972E-03      0.1597726575E-02

    ------------------------------------------------
       NWT REQUIRED            3 OUTER ITERATIONS 
       AND A TOTAL OF          5 INNER ITERATIONS.
    ------------------------------------------------

 NO OUTPUT CONTROL FOR STRESS PERIOD   44   TIME STEP    9
 
 SOLVING FOR HEAD 
                                                   Max.-Head-Change                         Max.-Flux-Residual
  Residual-Control   Outer-Iter.   Inner-Iter.     Column Row Layer    Maximum-Head-Change  Column Row Layer    Maximum-Flux-Residual          L2-NORM 
          0                 1           2             1    1     1       0.2145449198E-02       1    1    1         0.1113017665E+00      0.2254884985E+00
          0                 2           2             1    1     1      -0.2086937558E-03       1    1    1        -0.1113018024E-01      0.2249432722E-01
          0                 3           1             1    1     1       0.1421127026E-04       1    1    1         0.7791129112E-03      0.1569439844E-02

    ------------------------------------------------
       NWT REQUIRED            3 OUTER ITERATIONS 
       AND A TOTAL OF          5 INNER ITERATIONS.
    ------------------------------------------------

 NO OUTPUT CONTROL FOR STRESS PERIOD   44   TIME STEP   10
 
 SOLVING FOR HEAD 
                                                   Max.-Head-Change                         Max.-Flux-Residual
  Residual-Control   Outer-Iter.   Inner-Iter.     Column Row Layer    Maximum-Head-Change  Column Row Layer    Maximum-Flux-Residual          L2-NORM 
          0                 1           2             1    1     1       0.2144636675E-02       1    1    1         0.1112595690E+00      0.2225592511E+00
          0                 2           2             1    1     1      -0.2086147194E-03       1    1    1        -0.1112596049E-01      0.2221528113E-01
          0                 3           1             1    1     1       0.1420588831E-04       1    1    1         0.7788175297E-03      0.1551227689E-02

    ------------------------------------------------
       NWT REQUIRED            3 OUTER ITERATIONS 
       AND A TOTAL OF          5 INNER ITERATIONS.
    ------------------------------------------------

 NO OUTPUT CONTROL FOR STRESS PERIOD   44   TIME STEP   11
 
 SOLVING FOR HEAD 
                                                   Max.-Head-Change                         Max.-Flux-Residual
  Residual-Control   Outer-Iter.   Inner-Iter.     Column Row Layer    Maximum-Head-Change  Column Row Layer    Maximum-Flux-Residual          L2-NORM 
          0                 1           2             1    1     1       0.2143825543E-02       1    1    1         0.1112174413E+00      0.2204992424E+00
          0                 2           2             1    1     1      -0.2085358184E-03       1    1    1        -0.1112174771E-01      0.2201926384E-01
          0                 3           1             1    1     1       0.1420051559E-04       1    1    1         0.7785226431E-03      0.1538969688E-02

    ------------------------------------------------
       NWT REQUIRED            3 OUTER ITERATIONS 
       AND A TOTAL OF          5 INNER ITERATIONS.
    ------------------------------------------------

 NO OUTPUT CONTROL FOR STRESS PERIOD   44   TIME STEP   12
 
 SOLVING FOR HEAD 
                                                   Max.-Head-Change                         Max.-Flux-Residual
  Residual-Control   Outer-Iter.   Inner-Iter.     Column Row Layer    Maximum-Head-Change  Column Row Layer    Maximum-Flux-Residual          L2-NORM 
          0                 1           2             1    1     1       0.2143015755E-02       1    1    1         0.1111753858E+00      0.2189362990E+00
          0                 2           2             1    1     1      -0.2084570482E-03       1    1    1        -0.1111754216E-01      0.2186965964E-01
          0                 3           1             1    1     1       0.1419515162E-04       1    1    1         0.7782282504E-03      0.1528607028E-02

    ------------------------------------------------
       NWT REQUIRED            3 OUTER ITERATIONS 
       AND A TOTAL OF          5 INNER ITERATIONS.
    ------------------------------------------------

 NO OUTPUT CONTROL FOR STRESS PERIOD   44   TIME STEP   13
 
 SOLVING FOR HEAD 
                                                   Max.-Head-Change                         Max.-Flux-Residual
  Residual-Control   Outer-Iter.   Inner-Iter.     Column Row Layer    Maximum-Head-Change  Column Row Layer    Maximum-Flux-Residual          L2-NORM 
          0                 1           2             1    1     1       0.2142207355E-02       1    1    1         0.1111334000E+00      0.2176766800E+00
          0                 2           2             1    1     1      -0.2083784125E-03       1    1    1        -0.1111334357E-01      0.2174776391E-01
          0                 3           1             1    1     1       0.1418979665E-04       1    1    1         0.7779343412E-03      0.1520435873E-02

    ------------------------------------------------
       NWT REQUIRED            3 OUTER ITERATIONS 
       AND A TOTAL OF          5 INNER ITERATIONS.
    ------------------------------------------------

 NO OUTPUT CONTROL FOR STRESS PERIOD   44   TIME STEP   14
 
 SOLVING FOR HEAD 
                                                   Max.-Head-Change                         Max.-Flux-Residual
  Residual-Control   Outer-Iter.   Inner-Iter.     Column Row Layer    Maximum-Head-Change  Column Row Layer    Maximum-Flux-Residual          L2-NORM 
          0                 1           2             1    1     1       0.2141400297E-02       1    1    1         0.1110914861E+00      0.2166235747E+00
          0                 2           2             1    1     1      -0.2082999077E-03       1    1    1        -0.1110915217E-01      0.2164756916E-01
          0                 3           1             1    1     1       0.1418445068E-04       1    1    1         0.7776409440E-03      0.1513763671E-02

    ------------------------------------------------
       NWT REQUIRED            3 OUTER ITERATIONS 
       AND A TOTAL OF          5 INNER ITERATIONS.
    ------------------------------------------------

 NO OUTPUT CONTROL FOR STRESS PERIOD   44   TIME STEP   15
 
 SOLVING FOR HEAD 
                                                   Max.-Head-Change                         Max.-Flux-Residual
  Residual-Control   Outer-Iter.   Inner-Iter.     Column Row Layer    Maximum-Head-Change  Column Row Layer    Maximum-Flux-Residual          L2-NORM 
          0                 1           2             1    1     1       0.2140594625E-02       1    1    1         0.1110496419E+00      0.2157229626E+00
          0                 2           2             1    1     1      -0.2082215378E-03       1    1    1        -0.1110496773E-01      0.2155906996E-01
          0                 3           1             1    1     1       0.1417911441E-04       1    1    1         0.7773480547E-03      0.1508050922E-02

    ------------------------------------------------
       NWT REQUIRED            3 OUTER ITERATIONS 
       AND A TOTAL OF          5 INNER ITERATIONS.
    ------------------------------------------------

 NO OUTPUT CONTROL FOR STRESS PERIOD   44   TIME STEP   16
 
 SOLVING FOR HEAD 
                                                   Max.-Head-Change                         Max.-Flux-Residual
  Residual-Control   Outer-Iter.   Inner-Iter.     Column Row Layer    Maximum-Head-Change  Column Row Layer    Maximum-Flux-Residual          L2-NORM 
          0                 1           2             1    1     1       0.2139790291E-02       1    1    1         0.1110078694E+00      0.2149283561E+00
          0                 2           2             1    1     1      -0.2081432979E-03       1    1    1        -0.1110079049E-01      0.2148157994E-01
          0                 3           1             1    1     1       0.1417378642E-04       1    1    1         0.7770556354E-03      0.1502619060E-02

    ------------------------------------------------
       NWT REQUIRED            3 OUTER ITERATIONS 
       AND A TOTAL OF          5 INNER ITERATIONS.
    ------------------------------------------------

 NO OUTPUT CONTROL FOR STRESS PERIOD   44   TIME STEP   17
 
 SOLVING FOR HEAD 
                                                   Max.-Head-Change                         Max.-Flux-Residual
  Residual-Control   Outer-Iter.   Inner-Iter.     Column Row Layer    Maximum-Head-Change  Column Row Layer    Maximum-Flux-Residual          L2-NORM 
          0                 1           2             1    1     1       0.2138987339E-02       1    1    1         0.1109661664E+00      0.2142293611E+00
          0                 2           2             1    1     1      -0.2080651926E-03       1    1    1        -0.1109662018E-01      0.2141333892E-01
          0                 3           1             1    1     1       0.1416846790E-04       1    1    1         0.7767637251E-03      0.1498071864E-02

    ------------------------------------------------
       NWT REQUIRED            3 OUTER ITERATIONS 
       AND A TOTAL OF          5 INNER ITERATIONS.
    ------------------------------------------------

 NO OUTPUT CONTROL FOR STRESS PERIOD   44   TIME STEP   18
 
 SOLVING FOR HEAD 
                                                   Max.-Head-Change                         Max.-Flux-Residual
  Residual-Control   Outer-Iter.   Inner-Iter.     Column Row Layer    Maximum-Head-Change  Column Row Layer    Maximum-Flux-Residual          L2-NORM 
          0                 1           2             1    1     1       0.2138185723E-02       1    1    1         0.1109245350E+00      0.2136038892E+00
          0                 2           2             1    1     1      -0.2079872173E-03       1    1    1        -0.1109245705E-01      0.2135208459E-01
          0                 3           1             1    1     1       0.1416315766E-04       1    1    1         0.7764722922E-03      0.1493827191E-02

    ------------------------------------------------
       NWT REQUIRED            3 OUTER ITERATIONS 
       AND A TOTAL OF          5 INNER ITERATIONS.
    ------------------------------------------------

 NO OUTPUT CONTROL FOR STRESS PERIOD   44   TIME STEP   19
 
 SOLVING FOR HEAD 
                                                   Max.-Head-Change                         Max.-Flux-Residual
  Residual-Control   Outer-Iter.   Inner-Iter.     Column Row Layer    Maximum-Head-Change  Column Row Layer    Maximum-Flux-Residual          L2-NORM 
          0                 1           2             1    1     1       0.2137361947E-02       1    1    1         0.1108817501E+00      0.2130470282E+00
          0                 2           2             1    1     1      -0.2079070859E-03       1    1    1        -0.1108817854E-01      0.2129774161E-01
          0                 3           1             1    1     1       0.1415770116E-04       1    1    1         0.7761728025E-03      0.1490123416E-02

    ------------------------------------------------
       NWT REQUIRED            3 OUTER ITERATIONS 
       AND A TOTAL OF          5 INNER ITERATIONS.
    ------------------------------------------------

 NO OUTPUT CONTROL FOR STRESS PERIOD   44   TIME STEP   20
 
 SOLVING FOR HEAD 
                                                   Max.-Head-Change                         Max.-Flux-Residual
  Residual-Control   Outer-Iter.   Inner-Iter.     Column Row Layer    Maximum-Head-Change  Column Row Layer    Maximum-Flux-Residual          L2-NORM 
          0                 1           2             1    1     1       0.2136563085E-02       1    1    1         0.1108402618E+00      0.2125465998E+00
          0                 2           2             1    1     1      -0.2078293786E-03       1    1    1        -0.1108402971E-01      0.2124846928E-01
          0                 3           1             1    1     1       0.1415241009E-04       1    1    1         0.7758823832E-03      0.1486766154E-02

    ------------------------------------------------
       NWT REQUIRED            3 OUTER ITERATIONS 
       AND A TOTAL OF          5 INNER ITERATIONS.
    ------------------------------------------------

 NO OUTPUT CONTROL FOR STRESS PERIOD   44   TIME STEP   21
 
 SOLVING FOR HEAD 
                                                   Max.-Head-Change                         Max.-Flux-Residual
  Residual-Control   Outer-Iter.   Inner-Iter.     Column Row Layer    Maximum-Head-Change  Column Row Layer    Maximum-Flux-Residual          L2-NORM 
          0                 1           2             1    1     1       0.2135765600E-02       1    1    1         0.1107988425E+00      0.2120980098E+00
          0                 2           2             1    1     1      -0.2077518047E-03       1    1    1        -0.1107988777E-01      0.2120451373E-01
          0                 3           1             1    1     1       0.1414712730E-04       1    1    1         0.7755924406E-03      0.1483862120E-02

    ------------------------------------------------
       NWT REQUIRED            3 OUTER ITERATIONS 
       AND A TOTAL OF          5 INNER ITERATIONS.
    ------------------------------------------------

 NO OUTPUT CONTROL FOR STRESS PERIOD   44   TIME STEP   22
 
 SOLVING FOR HEAD 
                                                   Max.-Head-Change                         Max.-Flux-Residual
  Residual-Control   Outer-Iter.   Inner-Iter.     Column Row Layer    Maximum-Head-Change  Column Row Layer    Maximum-Flux-Residual          L2-NORM 
          0                 1           2             1    1     1       0.2134969442E-02       1    1    1         0.1107574945E+00      0.2116913683E+00
          0                 2           2             1    1     1      -0.2076743599E-03       1    1    1        -0.1107575295E-01      0.2116460626E-01
          0                 3           1             1    1     1       0.1414185328E-04       1    1    1         0.7753029956E-03      0.1481401450E-02

    ------------------------------------------------
       NWT REQUIRED            3 OUTER ITERATIONS 
       AND A TOTAL OF          5 INNER ITERATIONS.
    ------------------------------------------------

 NO OUTPUT CONTROL FOR STRESS PERIOD   44   TIME STEP   23
 
 SOLVING FOR HEAD 
                                                   Max.-Head-Change                         Max.-Flux-Residual
  Residual-Control   Outer-Iter.   Inner-Iter.     Column Row Layer    Maximum-Head-Change  Column Row Layer    Maximum-Flux-Residual          L2-NORM 
          0                 1           2             1    1     1       0.2134174657E-02       1    1    1         0.1107162154E+00      0.2113209735E+00
          0                 2           2             1    1     1      -0.2075970492E-03       1    1    1        -0.1107162505E-01      0.2112809272E-01
          0                 3           1             1    1     1       0.1413658895E-04       1    1    1         0.7750140537E-03      0.1478589239E-02

    ------------------------------------------------
       NWT REQUIRED            3 OUTER ITERATIONS 
       AND A TOTAL OF          5 INNER ITERATIONS.
    ------------------------------------------------

 NO OUTPUT CONTROL FOR STRESS PERIOD   44   TIME STEP   24
 
 SOLVING FOR HEAD 
                                                   Max.-Head-Change                         Max.-Flux-Residual
  Residual-Control   Outer-Iter.   Inner-Iter.     Column Row Layer    Maximum-Head-Change  Column Row Layer    Maximum-Flux-Residual          L2-NORM 
          0                 1           2             1    1     1       0.2133381196E-02       1    1    1         0.1106750074E+00      0.2109821993E+00
          0                 2           2             1    1     1      -0.2075198672E-03       1    1    1        -0.1106750425E-01      0.2109477659E-01
          0                 3           1             1    1     1       0.1413133315E-04       1    1    1         0.7747255996E-03      0.1476342198E-02

    ------------------------------------------------
       NWT REQUIRED            3 OUTER ITERATIONS 
       AND A TOTAL OF          5 INNER ITERATIONS.
    ------------------------------------------------

 NO OUTPUT CONTROL FOR STRESS PERIOD   44   TIME STEP   25
 
 SOLVING FOR HEAD 
                                                   Max.-Head-Change                         Max.-Flux-Residual
  Residual-Control   Outer-Iter.   Inner-Iter.     Column Row Layer    Maximum-Head-Change  Column Row Layer    Maximum-Flux-Residual          L2-NORM 
          0                 1           2             1    1     1       0.2132589058E-02       1    1    1         0.1106338681E+00      0.2106718164E+00
          0                 2           2             1    1     1      -0.2074428134E-03       1    1    1        -0.1106339031E-01      0.2106413204E-01
          0                 3           1             1    1     1       0.1412608610E-04       1    1    1         0.7744376222E-03      0.1474190280E-02

    ------------------------------------------------
       NWT REQUIRED            3 OUTER ITERATIONS 
       AND A TOTAL OF          5 INNER ITERATIONS.
    ------------------------------------------------

 NO OUTPUT CONTROL FOR STRESS PERIOD   44   TIME STEP   26
 
 SOLVING FOR HEAD 
                                                   Max.-Head-Change                         Max.-Flux-Residual
  Residual-Control   Outer-Iter.   Inner-Iter.     Column Row Layer    Maximum-Head-Change  Column Row Layer    Maximum-Flux-Residual          L2-NORM 
          0                 1           2             1    1     1       0.2131798285E-02       1    1    1         0.1105927974E+00      0.2103915269E+00
          0                 2           2             1    1     1      -0.2073658927E-03       1    1    1        -0.1105928322E-01      0.2103644575E-01
          0                 3           1             1    1     1       0.1412084852E-04       1    1    1         0.7741501361E-03      0.1472311746E-02

    ------------------------------------------------
       NWT REQUIRED            3 OUTER ITERATIONS 
       AND A TOTAL OF          5 INNER ITERATIONS.
    ------------------------------------------------

 NO OUTPUT CONTROL FOR STRESS PERIOD   44   TIME STEP   27
 
 SOLVING FOR HEAD 
                                                   Max.-Head-Change                         Max.-Flux-Residual
  Residual-Control   Outer-Iter.   Inner-Iter.     Column Row Layer    Maximum-Head-Change  Column Row Layer    Maximum-Flux-Residual          L2-NORM 
          0                 1           2             1    1     1       0.2130249238E-02       1    1    1         0.1105123378E+00      0.2100961592E+00
          0                 2           2             1    1     1      -0.2072152126E-03       1    1    1        -0.1105123726E-01      0.2100725398E-01
          0                 3           1             1    1     1       0.1411058755E-04       1    1    1         0.7735869193E-03      0.1470307164E-02

    ------------------------------------------------
       NWT REQUIRED            3 OUTER ITERATIONS 
       AND A TOTAL OF          5 INNER ITERATIONS.
    ------------------------------------------------

 NO OUTPUT CONTROL FOR STRESS PERIOD   44   TIME STEP   28
 
 SOLVING FOR HEAD 
                                                   Max.-Head-Change                         Max.-Flux-Residual
  Residual-Control   Outer-Iter.   Inner-Iter.     Column Row Layer    Maximum-Head-Change  Column Row Layer    Maximum-Flux-Residual          L2-NORM 
          0                 1           2             2   13     1      -0.4759912128E-02       4   13    1        -0.2713381292E+00      0.5148253466E+00
          0                 2           2             2   13     1       0.4474309162E-03       4   13    1         0.2693443227E-01      0.5048055472E-01
          0                 3           1             2   13     1      -0.2902294652E-04       4   13    1        -0.1864576607E-02      0.3438286214E-02

    ------------------------------------------------
       NWT REQUIRED            3 OUTER ITERATIONS 
       AND A TOTAL OF          5 INNER ITERATIONS.
    ------------------------------------------------

 NO OUTPUT CONTROL FOR STRESS PERIOD   44   TIME STEP   29
 
 SOLVING FOR HEAD 
                                                   Max.-Head-Change                         Max.-Flux-Residual
  Residual-Control   Outer-Iter.   Inner-Iter.     Column Row Layer    Maximum-Head-Change  Column Row Layer    Maximum-Flux-Residual          L2-NORM 
          0                 1           2             2   13     1      -0.4387201654E-02       2   13    1        -0.2477848322E+00      0.4284467227E+00
          0                 2           2             2   13     1       0.4149089945E-03       2   13    1         0.2409046946E-01      0.4206252002E-01
          0                 3           1             2   13     1      -0.2716256763E-04       2   13    1        -0.1621205187E-02      0.2870586079E-02

    ------------------------------------------------
       NWT REQUIRED            3 OUTER ITERATIONS 
       AND A TOTAL OF          5 INNER ITERATIONS.
    ------------------------------------------------

 NO OUTPUT CONTROL FOR STRESS PERIOD   44   TIME STEP   30



 STREAM LISTING     PERIOD     44   STEP       30

 LAYER ROW COL. STREAM  RCH.  FLOW INTO     FLOW TO   FLOW OUT OF   OVRLND.     DIRECT     STREAM       STREAM     STREAM     STREAM   STREAMBED  STREAMBED
                SEG.NO.  NO.  STRM. RCH.    AQUIFER    STRM. RCH.    RUNOFF     PRECIP       ET          HEAD       DEPTH      WIDTH   CONDCTNC.   GRADIENT

   1    1    1     1     1    2.7749E+01  2.5751E-01   2.7492E+01  0.000E+00  0.000E+00  0.000E+00  1.09427E+03  1.218E+00  1.357E+01  6.105E-02  1.406E+00
   1    2    2     1     2    2.7492E+01  3.9832E-01   2.7093E+01  0.000E+00  0.000E+00  0.000E+00  1.08927E+03  1.213E+00  1.351E+01  9.454E-02  1.404E+00
   1    3    3     1     3    2.7093E+01  3.3923E-01   2.6754E+01  0.000E+00  0.000E+00  0.000E+00  1.08363E+03  1.208E+00  1.344E+01  8.062E-02  1.403E+00
   1    3    4     1     4    2.6754E+01  3.1200E-01   2.6442E+01  0.000E+00  0.000E+00  0.000E+00  1.07861E+03  1.203E+00  1.337E+01  7.422E-02  1.401E+00
   1    4    5     2     1    2.4442E+01  3.2655E-01   2.4116E+01  0.000E+00  0.000E+00  0.000E+00  1.07312E+03  1.187E+00  1.200E+01  7.800E-02  1.396E+00
   1    5    6     2     2    2.4116E+01  2.5068E-01   2.3865E+01  0.000E+00  0.000E+00  0.000E+00  1.06769E+03  1.178E+00  1.200E+01  6.000E-02  1.393E+00
   1    6    6     2     3    2.3865E+01  2.5024E-01   2.3615E+01  0.000E+00  0.000E+00  0.000E+00  1.06296E+03  1.171E+00  1.200E+01  6.000E-02  1.390E+00
   1    7    6     2     4    2.3615E+01  2.4979E-01   2.3365E+01  0.000E+00  0.000E+00  0.000E+00  1.05824E+03  1.163E+00  1.200E+01  6.000E-02  1.388E+00
   1    8    6     2     5    2.3365E+01  2.4935E-01   2.3115E+01  0.000E+00  0.000E+00  0.000E+00  1.05351E+03  1.156E+00  1.200E+01  6.000E-02  1.385E+00
   1    3    5     3     1    2.0000E+00  2.8252E-01   1.7175E+00  0.000E+00  0.000E+00  0.000E+00  1.07555E+03  1.909E+00  9.636E+00  7.227E-02  1.955E+00
   1    3    6     3     2    1.7175E+00  2.4905E-01   1.4684E+00  0.000E+00  0.000E+00  0.000E+00  1.07264E+03  1.727E+00  8.909E+00  6.682E-02  1.864E+00
   1    3    7     3     3    1.4684E+00  1.9718E-01   1.2712E+00  0.000E+00  0.000E+00  0.000E+00  1.06987E+03  1.555E+00  8.218E+00  5.547E-02  1.777E+00
   1    4    8     3     4    1.2712E+00  2.2567E-01   1.0456E+00  0.000E+00  0.000E+00  0.000E+00  1.06682E+03  1.364E+00  7.455E+00  6.709E-02  1.682E+00
   1    5    8     3     5    1.0456E+00  1.5790E-01   8.8768E-01  0.000E+00  0.000E+00  0.000E+00  1.06362E+03  1.164E+00  6.655E+00  4.991E-02  1.582E+00
   1    6    8     3     6    8.8768E-01  5.5980E-02   8.3170E-01  0.000E+00  0.000E+00  0.000E+00  1.06158E+03  1.036E+00  6.145E+00  1.844E-02  1.518E+00
   1    5   10     4     1    1.0000E+01  9.0919E-02   9.9091E+00  0.000E+00  0.000E+00  0.000E+00  1.07836E+03  6.368E-01  1.000E+01  2.500E-02  1.212E+00
   1    5    9     4     2    9.9091E+00  1.8158E-01   9.7275E+00  0.000E+00  0.000E+00  0.000E+00  1.07154E+03  6.315E-01  1.000E+01  5.000E-02  1.211E+00
   1    6    8     4     3    9.7275E+00  1.2689E-01   9.6006E+00  0.000E+00  0.000E+00  0.000E+00  1.06381E+03  6.256E-01  1.000E+01  3.500E-02  1.209E+00
   1    6    8     5     1    1.0432E+01  2.2686E-01   1.0205E+01  0.000E+00  0.000E+00  0.000E+00  1.05868E+03  6.790E-01  1.542E+01  6.166E-02  1.226E+00
   1    7    7     5     2    1.0205E+01  2.7894E-01   9.9265E+00  0.000E+00  0.000E+00  0.000E+00  1.05417E+03  6.732E-01  1.519E+01  7.594E-02  1.224E+00
   1    8    7     5     3    9.9265E+00  1.9221E-01   9.7343E+00  0.000E+00  0.000E+00  0.000E+00  1.04992E+03  6.676E-01  1.497E+01  5.241E-02  1.223E+00
   1    8    6     5     4    9.7343E+00  1.3577E-01   9.5985E+00  0.000E+00  0.000E+00  0.000E+00  1.04691E+03  6.637E-01  1.482E+01  3.706E-02  1.221E+00
   1    9    6     6     1    3.2714E+01  2.6588E-01   3.2448E+01  0.000E+00  0.000E+00  0.000E+00  1.04416E+03  1.431E+00  1.200E+01  6.000E-02  1.477E+00
   1   10    7     6     2    3.2448E+01  2.6546E-01   3.2183E+01  0.000E+00  0.000E+00  0.000E+00  1.03961E+03  1.424E+00  1.200E+01  6.000E-02  1.475E+00
   1   11    7     6     3    3.2183E+01  2.6504E-01   3.1918E+01  0.000E+00  0.000E+00  0.000E+00  1.03505E+03  1.417E+00  1.200E+01  6.000E-02  1.472E+00
   1   12    7     6     4    3.1918E+01  2.6462E-01   3.1653E+01  0.000E+00  0.000E+00  0.000E+00  1.03050E+03  1.410E+00  1.200E+01  6.000E-02  1.470E+00
   1   13    7     6     5    3.1653E+01  2.3547E-03   3.1651E+01  0.000E+00  0.000E+00  0.000E+00  1.02732E+03  1.407E+00  1.200E+01  2.400E-02  3.270E-02
   1   14    9     7     1    1.5000E+02  1.3321E+00   1.4867E+02  0.000E+00  0.000E+00  0.000E+00  1.03987E+03  2.288E+00  5.529E+01  5.593E-01  7.939E-01
   1   13    8     7     2    1.4867E+02  1.8001E+00   1.4687E+02  0.000E+00  0.000E+00  0.000E+00  1.03478E+03  2.279E+00  5.526E+01  6.148E-01  9.760E-01
   1   13    7     7     3    1.4687E+02  1.3809E+00   1.4549E+02  0.000E+00  0.000E+00  0.000E+00  1.02969E+03  2.271E+00  5.522E+01  5.585E-01  8.242E-01
   1   13    6     8     1    1.7714E+02  8.5038E-01   1.7629E+02  0.000E+00  0.000E+00  0.000E+00  1.02487E+03  2.995E+00  4.343E+01  4.426E-01  6.404E-01
   1   13    5     8     2    1.7629E+02  9.6088E-02   1.7619E+02  0.000E+00  0.000E+00  0.000E+00  1.01862E+03  2.992E+00  4.339E+01  4.422E-01  7.244E-02
   1   13    4     8     3    1.7619E+02 -2.7749E+00   1.7897E+02  0.000E+00  0.000E+00  0.000E+00  1.01238E+03  3.001E+00  4.351E+01  4.434E+00 -2.086E-01
   1   13    3     8     4    1.7897E+02 -3.8257E+00   1.8279E+02  0.000E+00  0.000E+00  0.000E+00  1.00615E+03  3.022E+00  4.381E+01  4.465E+00 -2.856E-01
   1   13    2     8     5    1.8279E+02 -2.7997E+00   1.8559E+02  0.000E+00  0.000E+00  0.000E+00  9.99917E+02  3.042E+00  4.411E+01  4.495E+00 -2.076E-01
   1   13    1     8     6    1.8559E+02 -2.1208E+00   1.8771E+02  0.000E+00  0.000E+00  0.000E+00  9.94932E+02  3.057E+00  4.433E+01  2.711E+00 -2.608E-01
   1    8    6     9     1    0.0000E+00  0.0000E+00   0.0000E+00  0.000E+00  0.000E+00  0.000E+00  1.07875E+03  0.000E+00  4.000E+00  0.000E+00  1.000E+00
   1    8    5     9     2    0.0000E+00  0.0000E+00   0.0000E+00  0.000E+00  0.000E+00  0.000E+00  1.07825E+03  0.000E+00  4.000E+00  0.000E+00  1.000E+00





UNSATURATED ZONE PACKAGE VOLUMETRIC BUDGET FOR  TIME STEP    30 STRESS PERIOD   44
  ------------------------------------------------------------------------------



     CUMULATIVE VOLUMES      L**3       RATES FOR THIS TIME STEP      L**3/T
     ------------------                 ------------------------

           IN:                                      IN:
           ---                                      ---
        INFILTRATION =   499366199.6589          INFILTRATION =           4.4075

          OUT:                                     OUT:
          ----                                     ----
              UZF ET =   371086156.2756                UZF ET =           4.4075
        UZF RECHARGE =     2053800.1856          UZF RECHARGE =       0.0000E+00

            IN - OUT =   126226243.1977              IN - OUT =       0.0000E+00

          STORAGE:                                 STORAGE:
          --------                                 --------
      STORAGE CHANGE =   126228454.0494        STORAGE CHANGE =       1.9338E-13

 PERCENT DISCREPANCY IS DIFFERENCE BETWEEN IN-OUT MINUS CHANGE IN STORAGE
 DIVIDED BY THE AVERAGE OF IN AND OUT TIMES 100

 PERCENT DISCREPANCY =          -0.00     PERCENT DISCREPANCY =           0.00






1
  VOLUMETRIC BUDGET FOR ENTIRE MODEL AT END OF TIME STEP   30, STRESS PERIOD  44
  ------------------------------------------------------------------------------

     CUMULATIVE VOLUMES      L**3       RATES FOR THIS TIME STEP      L**3/T
     ------------------                 ------------------------

           IN:                                      IN:
           ---                                      ---
               AG WELLS  =           0.0000                 AG WELLS  =           0.0000
        DIVERSION SEGMEN =      848802.5000          DIVERSION SEGMEN =           0.0000
    TS         GW IRRIGA =           0.0000      TS         GW IRRIGA =           0.0000
    TION         SW IRRI =           0.0000      TION         SW IRRI =           0.0000
    GATION      SYSTEM L =           0.0000      GATION      SYSTEM L =           0.0000
    OSSES GW      SYSTEM =           0.1856      OSSES GW      SYSTEM =           0.0000

                TOTAL IN =      848802.6875                  TOTAL IN =           0.0000

          OUT:                                     OUT:
          ----                                     ----
               AG WELLS  =           0.0000                 AG WELLS  =           0.0000
        DIVERSION SEGMEN =           0.0000          DIVERSION SEGMEN =           0.0000
    TS         GW IRRIGA =           0.0000      TS         GW IRRIGA =           0.0000
    TION         SW IRRI =      848819.6875      TION         SW IRRI =           0.0000
    GATION      SYSTEM L =           0.0000      GATION      SYSTEM L =           0.0000
    OSSES GW      SYSTEM =           0.0000      OSSES GW      SYSTEM =           0.0000

               TOTAL OUT =      848819.6875                 TOTAL OUT =           0.0000

                IN - OUT =         -17.0000                  IN - OUT =           0.0000

     PERCENT DISCREPANCY =          -0.00         PERCENT DISCREPANCY =           0.00



1
  VOLUMETRIC BUDGET FOR ENTIRE MODEL AT END OF TIME STEP   30, STRESS PERIOD  44
  ------------------------------------------------------------------------------

     CUMULATIVE VOLUMES      L**3       RATES FOR THIS TIME STEP      L**3/T
     ------------------                 ------------------------

           IN:                                      IN:
           ---                                      ---
             STORAGE     =    54670772.0000               STORAGE     =           0.9310
       CONSTANT HEAD     =           0.0000         CONSTANT HEAD     =           0.0000
     HEAD DEP BOUNDS     =    32324114.0000       HEAD DEP BOUNDS     =           0.2855
      STREAM LEAKAGE     =  1353803008.0000        STREAM LEAKAGE     =          11.5580
        UZF RECHARGE     =     2053800.1250          UZF RECHARGE     =           0.0000
               GW ET     =           0.0000                 GW ET     =           0.0000
     SURFACE LEAKAGE     =           0.0000       SURFACE LEAKAGE     =           0.0000
           AG WELLS      =           0.0000             AG WELLS      =           0.0000

                TOTAL IN =  1442851712.0000                  TOTAL IN =          12.7746

          OUT:                                     OUT:
          ----                                     ----
             STORAGE     =   173245248.0000               STORAGE     =           0.8561
       CONSTANT HEAD     =           0.0000         CONSTANT HEAD     =           0.0000
     HEAD DEP BOUNDS     =    33107468.0000       HEAD DEP BOUNDS     =           0.2932
      STREAM LEAKAGE     =  1216720768.0000        STREAM LEAKAGE     =          11.5211
        UZF RECHARGE     =           0.0000          UZF RECHARGE     =           0.0000
               GW ET     =    19801742.0000                 GW ET     =           0.1041
     SURFACE LEAKAGE     =           0.0000       SURFACE LEAKAGE     =           0.0000
           AG WELLS      =           0.0000             AG WELLS      =           0.0000

               TOTAL OUT =  1442875264.0000                 TOTAL OUT =          12.7745

                IN - OUT =      -23552.0000                  IN - OUT =       4.9591E-05

     PERCENT DISCREPANCY =          -0.00         PERCENT DISCREPANCY =           0.00






         TIME SUMMARY AT END OF TIME STEP   30 IN STRESS PERIOD   44
                    SECONDS     MINUTES      HOURS       DAYS        YEARS
                    -----------------------------------------------------------
   TIME STEP LENGTH  87667.      1461.1      24.352      1.0147     2.77799E-03
 STRESS PERIOD TIME 2.63000E+06  43833.      730.56      30.440     8.33397E-02
         TOTAL TIME 1.13175E+08 1.88626E+06  31438.      1309.9      3.5863    
1
1
                            STRESS PERIOD NO.   45, LENGTH =   2630000.    
                            -----------------------------------------------

                              NUMBER OF TIME STEPS =    30

                               MULTIPLIER FOR DELT =     1.000

                            INITIAL TIME STEP SIZE =   87666.66    

 REUSING NON-PARAMETER GHB CELLS FROM LAST STRESS PERIOD

      2 GHB CELLS

 REUSING STREAM SEGMENT DATA FROM LAST STRESS PERIOD



            AREAL INFILTRATION RATE
 READING ON UNIT   19 WITH FORMAT: (10F4.0)            

            1           2           3           4           5           6           7           8           9          10
 ........................................................................................................................
   1   1.2000E-09   0.000       0.000       0.000       0.000       0.000       0.000       0.000       0.000       0.000    
   2   2.1000E-09  2.0000E-09  8.0000E-10  8.5000E-09   0.000       0.000       0.000       0.000       0.000       0.000    
   3   5.0000E-10  1.1000E-09  8.8000E-09  5.5000E-09   0.000       0.000       0.000       0.000       0.000       0.000    
   4   8.5000E-09  1.1000E-09  1.1000E-09  1.1000E-09  2.0000E-09   0.000       0.000       0.000       0.000       0.000    
   5   8.5000E-09  1.1000E-09  1.1000E-09  1.1000E-09  1.1000E-09   0.000       0.000       0.000       0.000       0.000    
   6   8.5000E-09  5.2000E-09  2.1000E-09  1.1000E-09  1.5000E-09   0.000       0.000       0.000       0.000       0.000    
   7   8.5000E-09  5.2000E-09  2.1000E-09  1.2000E-09  2.0000E-09   0.000       0.000       0.000       0.000       0.000    
   8   5.0000E-10  5.2000E-09  2.1000E-09  1.2000E-09  5.0000E-09   0.000       0.000       0.000       0.000       0.000    
   9   5.0000E-10  5.2000E-09  2.1000E-09  1.2000E-09  5.0000E-09   0.000       0.000       0.000       0.000       0.000    
  10   5.0000E-10  5.2000E-09  2.1000E-09  1.2000E-09  5.8000E-09   0.000       0.000       0.000       0.000       0.000    
  11   1.0000E-10  1.1000E-09  1.1000E-09  1.2000E-09  5.0000E-09   0.000       0.000       0.000       0.000       0.000    
  12   1.1000E-09  1.1000E-09  1.1000E-09  1.1000E-09  2.0000E-09   0.000       0.000       0.000       0.000       0.000    
  13   1.1000E-09  2.2000E-09  2.2000E-09  2.1000E-09  1.0000E-09   0.000       0.000       0.000       0.000       0.000    
  14   2.0000E-10  5.5000E-09  5.5000E-09  5.2000E-09  1.0000E-09   0.000       0.000       0.000       0.000       0.000    
  15    0.000      8.8000E-09  8.8000E-09   0.000       0.000       0.000       0.000       0.000       0.000       0.000    

                  ET RATE =  3.250000E-07

 USING ET EXTINCTION DEPTH FROM PREVIOUS STRESS PERIOD. CURRENT PERIOD IS:      45

 USING EXTINCTION WATER CONTENT FROM PREVIOUS STRESS PERIOD. CURRENT PERIOD IS:      45

 USING AIR ENTRY PRESSURE FROM PREVIOUS STRESS PERIOD. CURRENT PERIOD IS:      45

 USING ROOT PRESSURE HEAD FROM PREVIOUS STRESS PERIOD. CURRENT PERIOD IS:      45

 USING ROOT ACTIVITY FROM PREVIOUS STRESS PERIOD. CURRENT PERIOD IS:      45

 PROCESSING AG STRESS PERIOD DATA

 READING AG STRESS PERIOD DATA

 READING IRRIGATION SEGMENT

 READING IRRIGATION WELL

 READING SUPPLEMENTAL WELL

 END PROCESSING AG STRESS PERIOD DATA OPTIONS
 
 SOLVING FOR HEAD 
                                                   Max.-Head-Change                         Max.-Flux-Residual
  Residual-Control   Outer-Iter.   Inner-Iter.     Column Row Layer    Maximum-Head-Change  Column Row Layer    Maximum-Flux-Residual          L2-NORM 
          0                 1           2             2   13     1      -0.4037229815E-02       2   13    1        -0.2282631042E+00      0.3667495914E+00
          0                 2           2             2   13     1       0.3837060095E-03       2   13    1         0.2230319603E-01      0.3601879670E-01
          0                 3           1             4   13     1      -0.5170126580E-04       4   13    1        -0.3958934270E-02      0.4587017826E-02

    ------------------------------------------------
       NWT REQUIRED            3 OUTER ITERATIONS 
       AND A TOTAL OF          5 INNER ITERATIONS.
    ------------------------------------------------

 NO OUTPUT CONTROL FOR STRESS PERIOD   45   TIME STEP    1
 
 SOLVING FOR HEAD 
                                                   Max.-Head-Change                         Max.-Flux-Residual
  Residual-Control   Outer-Iter.   Inner-Iter.     Column Row Layer    Maximum-Head-Change  Column Row Layer    Maximum-Flux-Residual          L2-NORM 
          0                 1           2             2   13     1      -0.3712002184E-02       2   13    1        -0.2099605469E+00      0.3345043307E+00
          0                 2           2             2   13     1       0.3536994467E-03       2   13    1         0.2056874997E-01      0.3299885136E-01
          0                 3           1             2   13     1      -0.2383470085E-04       2   13    1        -0.1424797887E-02      0.2378647442E-02

    ------------------------------------------------
       NWT REQUIRED            3 OUTER ITERATIONS 
       AND A TOTAL OF          5 INNER ITERATIONS.
    ------------------------------------------------

 NO OUTPUT CONTROL FOR STRESS PERIOD   45   TIME STEP    2
 
 SOLVING FOR HEAD 
                                                   Max.-Head-Change                         Max.-Flux-Residual
  Residual-Control   Outer-Iter.   Inner-Iter.     Column Row Layer    Maximum-Head-Change  Column Row Layer    Maximum-Flux-Residual          L2-NORM 
          0                 1           2             2   13     1      -0.3411657231E-02       2   13    1        -0.1930224628E+00      0.3136801894E+00
          0                 2           2             2   13     1       0.3249993237E-03       2   13    1         0.1890390984E-01      0.3091838061E-01
          0                 3           1             2   13     1      -0.2150136309E-04       2   13    1        -0.1285694419E-02      0.2122326362E-02

    ------------------------------------------------
       NWT REQUIRED            3 OUTER ITERATIONS 
       AND A TOTAL OF          5 INNER ITERATIONS.
    ------------------------------------------------

 NO OUTPUT CONTROL FOR STRESS PERIOD   45   TIME STEP    3
 
 SOLVING FOR HEAD 
                                                   Max.-Head-Change                         Max.-Flux-Residual
  Residual-Control   Outer-Iter.   Inner-Iter.     Column Row Layer    Maximum-Head-Change  Column Row Layer    Maximum-Flux-Residual          L2-NORM 
          0                 1           2             2   13     1      -0.3134862281E-02       2   13    1        -0.1773898976E+00      0.2965039484E+00
          0                 2           2             2   13     1       0.2983987929E-03       2   13    1         0.1738135471E-01      0.2896495527E-01
          0                 3           1             2   13     1      -0.1976726039E-04       2   13    1        -0.1183728104E-02      0.1993688674E-02

    ------------------------------------------------
       NWT REQUIRED            3 OUTER ITERATIONS 
       AND A TOTAL OF          5 INNER ITERATIONS.
    ------------------------------------------------

 NO OUTPUT CONTROL FOR STRESS PERIOD   45   TIME STEP    4
 
 SOLVING FOR HEAD 
                                                   Max.-Head-Change                         Max.-Flux-Residual
  Residual-Control   Outer-Iter.   Inner-Iter.     Column Row Layer    Maximum-Head-Change  Column Row Layer    Maximum-Flux-Residual          L2-NORM 
          0                 1           2             2   13     1      -0.2881953322E-02       2   13    1        -0.1630119951E+00      0.2819123937E+00
          0                 2           2             2   13     1       0.2745978860E-03       2   13    1         0.1596840534E-01      0.2783323537E-01
          0                 3           1             2   13     1      -0.1817726947E-04       2   13    1        -0.1086674260E-02      0.1915446091E-02

    ------------------------------------------------
       NWT REQUIRED            3 OUTER ITERATIONS 
       AND A TOTAL OF          5 INNER ITERATIONS.
    ------------------------------------------------

 NO OUTPUT CONTROL FOR STRESS PERIOD   45   TIME STEP    5
 
 SOLVING FOR HEAD 
                                                   Max.-Head-Change                         Max.-Flux-Residual
  Residual-Control   Outer-Iter.   Inner-Iter.     Column Row Layer    Maximum-Head-Change  Column Row Layer    Maximum-Flux-Residual          L2-NORM 
          0                 1           2             2   13     1      -0.2649951033E-02       2   13    1        -0.1498456045E+00      0.2695202571E+00
          0                 2           2             2   13     1       0.2524920491E-03       2   13    1         0.1467858692E-01      0.2662845956E-01
          0                 3           1             2   13     1      -0.1674526530E-04       2   13    1        -0.1000796251E-02      0.1834542535E-02

    ------------------------------------------------
       NWT REQUIRED            3 OUTER ITERATIONS 
       AND A TOTAL OF          5 INNER ITERATIONS.
    ------------------------------------------------

 NO OUTPUT CONTROL FOR STRESS PERIOD   45   TIME STEP    6
 
 SOLVING FOR HEAD 
                                                   Max.-Head-Change                         Max.-Flux-Residual
  Residual-Control   Outer-Iter.   Inner-Iter.     Column Row Layer    Maximum-Head-Change  Column Row Layer    Maximum-Flux-Residual          L2-NORM 
          0                 1           2             2   13     1      -0.2437409102E-02       2   13    1        -0.1377864288E+00      0.2583010810E+00
          0                 2           2             2   13     1       0.2321706514E-03       2   13    1         0.1349312802E-01      0.2553638273E-01
          0                 3           1             2   13     1      -0.1535999368E-04       2   13    1        -0.9176972690E-03      0.1760184387E-02

    ------------------------------------------------
       NWT REQUIRED            3 OUTER ITERATIONS 
       AND A TOTAL OF          5 INNER ITERATIONS.
    ------------------------------------------------

 NO OUTPUT CONTROL FOR STRESS PERIOD   45   TIME STEP    7
 
 SOLVING FOR HEAD 
                                                   Max.-Head-Change                         Max.-Flux-Residual
  Residual-Control   Outer-Iter.   Inner-Iter.     Column Row Layer    Maximum-Head-Change  Column Row Layer    Maximum-Flux-Residual          L2-NORM 
          0                 1           2             2   13     1      -0.2242563108E-02       2   13    1        -0.1267338798E+00      0.2481411772E+00
          0                 2           2             2   13     1       0.2135423874E-03       2   13    1         0.1240672014E-01      0.2454767313E-01
          0                 3           1             2   13     1      -0.1411309002E-04       2   13    1        -0.8429306336E-03      0.1693290060E-02

    ------------------------------------------------
       NWT REQUIRED            3 OUTER ITERATIONS 
       AND A TOTAL OF          5 INNER ITERATIONS.
    ------------------------------------------------

 NO OUTPUT CONTROL FOR STRESS PERIOD   45   TIME STEP    8
 
 SOLVING FOR HEAD 
                                                   Max.-Head-Change                         Max.-Flux-Residual
  Residual-Control   Outer-Iter.   Inner-Iter.     Column Row Layer    Maximum-Head-Change  Column Row Layer    Maximum-Flux-Residual          L2-NORM 
          0                 1           2             2   13     1      -0.2064018646E-02       2   13    1        -0.1166083973E+00      0.2389451513E+00
          0                 2           2             2   13     1       0.1964778091E-03       2   13    1         0.1141174896E-01      0.2365215079E-01
          0                 3           1             2   13     1      -0.1298300781E-04       2   13    1        -0.7752005131E-03      0.1633081413E-02

    ------------------------------------------------
       NWT REQUIRED            3 OUTER ITERATIONS 
       AND A TOTAL OF          5 INNER ITERATIONS.
    ------------------------------------------------

 NO OUTPUT CONTROL FOR STRESS PERIOD   45   TIME STEP    9
 
 SOLVING FOR HEAD 
                                                   Max.-Head-Change                         Max.-Flux-Residual
  Residual-Control   Outer-Iter.   Inner-Iter.     Column Row Layer    Maximum-Head-Change  Column Row Layer    Maximum-Flux-Residual          L2-NORM 
          0                 1           2             2   13     1      -0.1900247890E-02       2   13    1        -0.1073229529E+00      0.2306082404E+00
          0                 2           2             2   13     1       0.1808686318E-03       2   13    1         0.1050184689E-01      0.2284285098E-01
          0                 3           1             2   13     1      -0.1194399806E-04       2   13    1        -0.7129245887E-03      0.1578385442E-02

    ------------------------------------------------
       NWT REQUIRED            3 OUTER ITERATIONS 
       AND A TOTAL OF          5 INNER ITERATIONS.
    ------------------------------------------------

 NO OUTPUT CONTROL FOR STRESS PERIOD   45   TIME STEP   10
 
 SOLVING FOR HEAD 
                                                   Max.-Head-Change                         Max.-Flux-Residual
  Residual-Control   Outer-Iter.   Inner-Iter.     Column Row Layer    Maximum-Head-Change  Column Row Layer    Maximum-Flux-Residual          L2-NORM 
          0                 1           2             2    1     1       0.1771019950E-02       2   13    1        -0.9881295757E-01      0.2230621452E+00
          0                 2           2             2    1     1      -0.1722720808E-03       2   13    1         0.9666484848E-02      0.2210919499E-01
          0                 3           1             2    1     1       0.1173109010E-04       2   13    1        -0.6565063604E-03      0.1529408518E-02

    ------------------------------------------------
       NWT REQUIRED            3 OUTER ITERATIONS 
       AND A TOTAL OF          5 INNER ITERATIONS.
    ------------------------------------------------

 NO OUTPUT CONTROL FOR STRESS PERIOD   45   TIME STEP   11
 
 SOLVING FOR HEAD 
                                                   Max.-Head-Change                         Max.-Flux-Residual
  Residual-Control   Outer-Iter.   Inner-Iter.     Column Row Layer    Maximum-Head-Change  Column Row Layer    Maximum-Flux-Residual          L2-NORM 
          0                 1           2             2    1     1       0.1768271145E-02       2    1    1         0.9184108994E-01      0.2162137395E+00
          0                 2           2             2    1     1      -0.1720046955E-03       2    1    1        -0.9184117744E-02      0.2144308647E-01
          0                 3           1             2    1     1       0.1171288188E-04       2    1    1         0.6428884282E-03      0.1484814339E-02

    ------------------------------------------------
       NWT REQUIRED            3 OUTER ITERATIONS 
       AND A TOTAL OF          5 INNER ITERATIONS.
    ------------------------------------------------

 NO OUTPUT CONTROL FOR STRESS PERIOD   45   TIME STEP   12
 
 SOLVING FOR HEAD 
                                                   Max.-Head-Change                         Max.-Flux-Residual
  Residual-Control   Outer-Iter.   Inner-Iter.     Column Row Layer    Maximum-Head-Change  Column Row Layer    Maximum-Flux-Residual          L2-NORM 
          0                 1           2             2    1     1       0.1765541366E-02       2    1    1         0.9169856739E-01      0.2100034838E+00
          0                 2           2             2    1     1      -0.1717391619E-03       2    1    1        -0.9169865435E-02      0.2084100837E-01
          0                 3           1             2    1     1       0.1169480051E-04       2    1    1         0.6418907848E-03      0.1443925428E-02

    ------------------------------------------------
       NWT REQUIRED            3 OUTER ITERATIONS 
       AND A TOTAL OF          5 INNER ITERATIONS.
    ------------------------------------------------

 NO OUTPUT CONTROL FOR STRESS PERIOD   45   TIME STEP   13
 
 SOLVING FOR HEAD 
                                                   Max.-Head-Change                         Max.-Flux-Residual
  Residual-Control   Outer-Iter.   Inner-Iter.     Column Row Layer    Maximum-Head-Change  Column Row Layer    Maximum-Flux-Residual          L2-NORM 
          0                 1           2             2    1     1       0.1762830382E-02       2    1    1         0.9155703132E-01      0.2043646048E+00
          0                 2           2             2    1     1      -0.1714754559E-03       2    1    1        -0.9155711771E-02      0.2029247633E-01
          0                 3           1             2    1     1       0.1167684293E-04       2    1    1         0.6409000139E-03      0.1406887143E-02

    ------------------------------------------------
       NWT REQUIRED            3 OUTER ITERATIONS 
       AND A TOTAL OF          5 INNER ITERATIONS.
    ------------------------------------------------

 NO OUTPUT CONTROL FOR STRESS PERIOD   45   TIME STEP   14
 
 SOLVING FOR HEAD 
                                                   Max.-Head-Change                         Max.-Flux-Residual
  Residual-Control   Outer-Iter.   Inner-Iter.     Column Row Layer    Maximum-Head-Change  Column Row Layer    Maximum-Flux-Residual          L2-NORM 
          0                 1           2             2    1     1       0.1760160166E-02       2    1    1         0.9141762385E-01      0.1992406626E+00
          0                 2           2             2    1     1      -0.1712157158E-03       2    1    1        -0.9141770955E-02      0.1979461870E-01
          0                 3           1             2    1     1       0.1165915563E-04       2    1    1         0.6399241638E-03      0.1373561912E-02

    ------------------------------------------------
       NWT REQUIRED            3 OUTER ITERATIONS 
       AND A TOTAL OF          5 INNER ITERATIONS.
    ------------------------------------------------

 NO OUTPUT CONTROL FOR STRESS PERIOD   45   TIME STEP   15
 
 SOLVING FOR HEAD 
                                                   Max.-Head-Change                         Max.-Flux-Residual
  Residual-Control   Outer-Iter.   Inner-Iter.     Column Row Layer    Maximum-Head-Change  Column Row Layer    Maximum-Flux-Residual          L2-NORM 
          0                 1           2             2    1     1       0.1757486034E-02       2    1    1         0.9127802201E-01      0.1945797533E+00
          0                 2           2             2    1     1      -0.1709555944E-03       2    1    1        -0.9127810691E-02      0.1934135992E-01
          0                 3           1             2    1     1       0.1164144229E-04       2    1    1         0.6389469439E-03      0.1342888263E-02

    ------------------------------------------------
       NWT REQUIRED            3 OUTER ITERATIONS 
       AND A TOTAL OF          5 INNER ITERATIONS.
    ------------------------------------------------

 NO OUTPUT CONTROL FOR STRESS PERIOD   45   TIME STEP   16
 
 SOLVING FOR HEAD 
                                                   Max.-Head-Change                         Max.-Flux-Residual
  Residual-Control   Outer-Iter.   Inner-Iter.     Column Row Layer    Maximum-Head-Change  Column Row Layer    Maximum-Flux-Residual          L2-NORM 
          0                 1           2             2    1     1       0.1754830024E-02       2    1    1         0.9113937120E-01      0.1903406218E+00
          0                 2           2             2    1     1      -0.1706972367E-03       2    1    1        -0.9113945576E-02      0.1893017361E-01
          0                 3           1             2    1     1       0.1162384918E-04       2    1    1         0.6379763816E-03      0.1315761638E-02

    ------------------------------------------------
       NWT REQUIRED            3 OUTER ITERATIONS 
       AND A TOTAL OF          5 INNER ITERATIONS.
    ------------------------------------------------

 NO OUTPUT CONTROL FOR STRESS PERIOD   45   TIME STEP   17
 
 SOLVING FOR HEAD 
                                                   Max.-Head-Change                         Max.-Flux-Residual
  Residual-Control   Outer-Iter.   Inner-Iter.     Column Row Layer    Maximum-Head-Change  Column Row Layer    Maximum-Flux-Residual          L2-NORM 
          0                 1           2             2    1     1       0.1752191918E-02       2    1    1         0.9100165997E-01      0.1864762825E+00
          0                 2           2             2    1     1      -0.1704406199E-03       2    1    1        -0.9100174385E-02      0.1855444800E-01
          0                 3           1             2    1     1       0.1160637488E-04       2    1    1         0.6370124115E-03      0.1290686985E-02

    ------------------------------------------------
       NWT REQUIRED            3 OUTER ITERATIONS 
       AND A TOTAL OF          5 INNER ITERATIONS.
    ------------------------------------------------

 NO OUTPUT CONTROL FOR STRESS PERIOD   45   TIME STEP   18
 
 SOLVING FOR HEAD 
                                                   Max.-Head-Change                         Max.-Flux-Residual
  Residual-Control   Outer-Iter.   Inner-Iter.     Column Row Layer    Maximum-Head-Change  Column Row Layer    Maximum-Flux-Residual          L2-NORM 
          0                 1           2             2    1     1       0.1749571500E-02       2    1    1         0.9086487703E-01      0.1829517262E+00
          0                 2           2             2    1     1      -0.1701857237E-03       2    1    1        -0.9086496031E-02      0.1821124913E-01
          0                 3           1             2    1     1       0.1158901703E-04       2    1    1         0.6360549118E-03      0.1266559817E-02

    ------------------------------------------------
       NWT REQUIRED            3 OUTER ITERATIONS 
       AND A TOTAL OF          5 INNER ITERATIONS.
    ------------------------------------------------

 NO OUTPUT CONTROL FOR STRESS PERIOD   45   TIME STEP   19
 
 SOLVING FOR HEAD 
                                                   Max.-Head-Change                         Max.-Flux-Residual
  Residual-Control   Outer-Iter.   Inner-Iter.     Column Row Layer    Maximum-Head-Change  Column Row Layer    Maximum-Flux-Residual          L2-NORM 
          0                 1           2             2    1     1       0.1746968561E-02       2    1    1         0.9072901126E-01      0.1797308035E+00
          0                 2           2             2    1     1      -0.1699325281E-03       2    1    1        -0.9072909398E-02      0.1789725247E-01
          0                 3           1             2    1     1       0.1157177585E-04       2    1    1         0.6351038630E-03      0.1245678769E-02

    ------------------------------------------------
       NWT REQUIRED            3 OUTER ITERATIONS 
       AND A TOTAL OF          5 INNER ITERATIONS.
    ------------------------------------------------

 NO OUTPUT CONTROL FOR STRESS PERIOD   45   TIME STEP   20
 
 SOLVING FOR HEAD 
                                                   Max.-Head-Change                         Max.-Flux-Residual
  Residual-Control   Outer-Iter.   Inner-Iter.     Column Row Layer    Maximum-Head-Change  Column Row Layer    Maximum-Flux-Residual          L2-NORM 
          0                 1           2             2    1     1       0.1744382891E-02       2    1    1         0.9059405171E-01      0.1767912388E+00
          0                 2           2             2    1     1      -0.1696810114E-03       2    1    1        -0.9059413367E-02      0.1761108413E-01
          0                 3           1             2    1     1       0.1155464852E-04       2    1    1         0.6341591211E-03      0.1226436790E-02

    ------------------------------------------------
       NWT REQUIRED            3 OUTER ITERATIONS 
       AND A TOTAL OF          5 INNER ITERATIONS.
    ------------------------------------------------

 NO OUTPUT CONTROL FOR STRESS PERIOD   45   TIME STEP   21
 
 SOLVING FOR HEAD 
                                                   Max.-Head-Change                         Max.-Flux-Residual
  Residual-Control   Outer-Iter.   Inner-Iter.     Column Row Layer    Maximum-Head-Change  Column Row Layer    Maximum-Flux-Residual          L2-NORM 
          0                 1           2             2    1     1       0.1741814390E-02       2    1    1         0.9045998759E-01      0.1740943928E+00
          0                 2           2             2    1     1      -0.1694311658E-03       2    1    1        -0.9046006909E-02      0.1735130033E-01
          0                 3           1             2    1     1       0.1153763502E-04       2    1    1         0.6332206895E-03      0.1211449540E-02

    ------------------------------------------------
       NWT REQUIRED            3 OUTER ITERATIONS 
       AND A TOTAL OF          5 INNER ITERATIONS.
    ------------------------------------------------

 NO OUTPUT CONTROL FOR STRESS PERIOD   45   TIME STEP   22
 
 SOLVING FOR HEAD 
                                                   Max.-Head-Change                         Max.-Flux-Residual
  Residual-Control   Outer-Iter.   Inner-Iter.     Column Row Layer    Maximum-Head-Change  Column Row Layer    Maximum-Flux-Residual          L2-NORM 
          0                 1           2             2    1     1       0.1739262751E-02       2    1    1         0.9032681361E-01      0.1716226717E+00
          0                 2           2             2    1     1      -0.1691829603E-03       2    1    1        -0.9032689463E-02      0.1710711936E-01
          0                 3           1             2    1     1       0.1152073348E-04       2    1    1         0.6322884664E-03      0.1191801590E-02

    ------------------------------------------------
       NWT REQUIRED            3 OUTER ITERATIONS 
       AND A TOTAL OF          5 INNER ITERATIONS.
    ------------------------------------------------

 NO OUTPUT CONTROL FOR STRESS PERIOD   45   TIME STEP   23
 
 SOLVING FOR HEAD 
                                                   Max.-Head-Change                         Max.-Flux-Residual
  Residual-Control   Outer-Iter.   Inner-Iter.     Column Row Layer    Maximum-Head-Change  Column Row Layer    Maximum-Flux-Residual          L2-NORM 
          0                 1           2             2    1     1       0.1736727878E-02       2    1    1         0.9019451393E-01      0.1693566951E+00
          0                 2           2             2    1     1      -0.1689363854E-03       2    1    1        -0.9019459446E-02      0.1688610500E-01
          0                 3           1             2    1     1       0.1150394245E-04       2    1    1         0.6313623555E-03      0.1177403487E-02

    ------------------------------------------------
       NWT REQUIRED            3 OUTER ITERATIONS 
       AND A TOTAL OF          5 INNER ITERATIONS.
    ------------------------------------------------

 NO OUTPUT CONTROL FOR STRESS PERIOD   45   TIME STEP   24
 
 SOLVING FOR HEAD 
                                                   Max.-Head-Change                         Max.-Flux-Residual
  Residual-Control   Outer-Iter.   Inner-Iter.     Column Row Layer    Maximum-Head-Change  Column Row Layer    Maximum-Flux-Residual          L2-NORM 
          0                 1           2             2    1     1       0.1734209471E-02       2    1    1         0.9006308354E-01      0.1672698017E+00
          0                 2           2             2    1     1      -0.1686914122E-03       2    1    1        -0.9006316346E-02      0.1668291983E-01
          0                 3           1             2    1     1       0.1148726101E-04       2    1    1         0.6304423468E-03      0.1164078232E-02

    ------------------------------------------------
       NWT REQUIRED            3 OUTER ITERATIONS 
       AND A TOTAL OF          5 INNER ITERATIONS.
    ------------------------------------------------

 NO OUTPUT CONTROL FOR STRESS PERIOD   45   TIME STEP   25
 
 SOLVING FOR HEAD 
                                                   Max.-Head-Change                         Max.-Flux-Residual
  Residual-Control   Outer-Iter.   Inner-Iter.     Column Row Layer    Maximum-Head-Change  Column Row Layer    Maximum-Flux-Residual          L2-NORM 
          0                 1           2             2    1     1       0.1731707472E-02       2    1    1         0.8993250694E-01      0.1653490036E+00
          0                 2           2             2    1     1      -0.1684480345E-03       2    1    1        -0.8993258607E-02      0.1649526718E-01
          0                 3           1             2    1     1       0.1147068773E-04       2    1    1         0.6295283049E-03      0.1151152609E-02

    ------------------------------------------------
       NWT REQUIRED            3 OUTER ITERATIONS 
       AND A TOTAL OF          5 INNER ITERATIONS.
    ------------------------------------------------

 NO OUTPUT CONTROL FOR STRESS PERIOD   45   TIME STEP   26
 
 SOLVING FOR HEAD 
                                                   Max.-Head-Change                         Max.-Flux-Residual
  Residual-Control   Outer-Iter.   Inner-Iter.     Column Row Layer    Maximum-Head-Change  Column Row Layer    Maximum-Flux-Residual          L2-NORM 
          0                 1           2             2    1     1       0.1729221556E-02       2    1    1         0.8980278103E-01      0.1635757808E+00
          0                 2           2             2    1     1      -0.1682062222E-03       2    1    1        -0.8980285974E-02      0.1632191326E-01
          0                 3           1             2    1     1       0.1145422142E-04       2    1    1         0.6286202281E-03      0.1139171529E-02

    ------------------------------------------------
       NWT REQUIRED            3 OUTER ITERATIONS 
       AND A TOTAL OF          5 INNER ITERATIONS.
    ------------------------------------------------

 NO OUTPUT CONTROL FOR STRESS PERIOD   45   TIME STEP   27
 
 SOLVING FOR HEAD 
                                                   Max.-Head-Change                         Max.-Flux-Residual
  Residual-Control   Outer-Iter.   Inner-Iter.     Column Row Layer    Maximum-Head-Change  Column Row Layer    Maximum-Flux-Residual          L2-NORM 
          0                 1           2             2    1     1       0.1726729421E-02       2    1    1         0.8967273418E-01      0.1619409533E+00
          0                 2           2             2    1     1      -0.1679638048E-03       2    1    1        -0.8967281246E-02      0.1616221023E-01
          0                 3           1             2    1     1       0.1143771394E-04       2    1    1         0.6277098929E-03      0.1128615688E-02

    ------------------------------------------------
       NWT REQUIRED            3 OUTER ITERATIONS 
       AND A TOTAL OF          5 INNER ITERATIONS.
    ------------------------------------------------

 NO OUTPUT CONTROL FOR STRESS PERIOD   45   TIME STEP   28
 
 SOLVING FOR HEAD 
                                                   Max.-Head-Change                         Max.-Flux-Residual
  Residual-Control   Outer-Iter.   Inner-Iter.     Column Row Layer    Maximum-Head-Change  Column Row Layer    Maximum-Flux-Residual          L2-NORM 
          0                 1           2             2    1     1       0.1724275372E-02       2    1    1         0.8954467458E-01      0.1604300231E+00
          0                 2           2             2    1     1      -0.1677250920E-03       2    1    1        -0.8954475222E-02      0.1601429561E-01
          0                 3           1             2    1     1       0.1142145874E-04       2    1    1         0.6268134861E-03      0.1118180337E-02

    ------------------------------------------------
       NWT REQUIRED            3 OUTER ITERATIONS 
       AND A TOTAL OF          5 INNER ITERATIONS.
    ------------------------------------------------

 NO OUTPUT CONTROL FOR STRESS PERIOD   45   TIME STEP   29
 
 SOLVING FOR HEAD 
                                                   Max.-Head-Change                         Max.-Flux-Residual
  Residual-Control   Outer-Iter.   Inner-Iter.     Column Row Layer    Maximum-Head-Change  Column Row Layer    Maximum-Flux-Residual          L2-NORM 
          0                 1           2             2    1     1       0.1721836954E-02       2    1    1         0.8941743486E-01      0.1590237018E+00
          0                 2           2             2    1     1      -0.1674878994E-03       2    1    1        -0.8941751217E-02      0.1587631489E-01
          0                 3           1             2    1     1       0.1140530650E-04       2    1    1         0.6259227778E-03      0.1108598839E-02

    ------------------------------------------------
       NWT REQUIRED            3 OUTER ITERATIONS 
       AND A TOTAL OF          5 INNER ITERATIONS.
    ------------------------------------------------

 NO OUTPUT CONTROL FOR STRESS PERIOD   45   TIME STEP   30



 STREAM LISTING     PERIOD     45   STEP       30

 LAYER ROW COL. STREAM  RCH.  FLOW INTO     FLOW TO   FLOW OUT OF   OVRLND.     DIRECT     STREAM       STREAM     STREAM     STREAM   STREAMBED  STREAMBED
                SEG.NO.  NO.  STRM. RCH.    AQUIFER    STRM. RCH.    RUNOFF     PRECIP       ET          HEAD       DEPTH      WIDTH   CONDCTNC.   GRADIENT

   1    1    1     1     1    2.7749E+01  2.5751E-01   2.7492E+01  0.000E+00  0.000E+00  0.000E+00  1.09427E+03  1.218E+00  1.357E+01  6.105E-02  1.406E+00
   1    2    2     1     2    2.7492E+01  3.9832E-01   2.7093E+01  0.000E+00  0.000E+00  0.000E+00  1.08927E+03  1.213E+00  1.351E+01  9.454E-02  1.404E+00
   1    3    3     1     3    2.7093E+01  3.3923E-01   2.6754E+01  0.000E+00  0.000E+00  0.000E+00  1.08363E+03  1.208E+00  1.344E+01  8.062E-02  1.403E+00
   1    3    4     1     4    2.6754E+01  3.1200E-01   2.6442E+01  0.000E+00  0.000E+00  0.000E+00  1.07861E+03  1.203E+00  1.337E+01  7.422E-02  1.401E+00
   1    4    5     2     1    2.4442E+01  3.2655E-01   2.4116E+01  0.000E+00  0.000E+00  0.000E+00  1.07312E+03  1.187E+00  1.200E+01  7.800E-02  1.396E+00
   1    5    6     2     2    2.4116E+01  2.5068E-01   2.3865E+01  0.000E+00  0.000E+00  0.000E+00  1.06769E+03  1.178E+00  1.200E+01  6.000E-02  1.393E+00
   1    6    6     2     3    2.3865E+01  2.5024E-01   2.3615E+01  0.000E+00  0.000E+00  0.000E+00  1.06296E+03  1.171E+00  1.200E+01  6.000E-02  1.390E+00
   1    7    6     2     4    2.3615E+01  2.4979E-01   2.3365E+01  0.000E+00  0.000E+00  0.000E+00  1.05824E+03  1.163E+00  1.200E+01  6.000E-02  1.388E+00
   1    8    6     2     5    2.3365E+01  2.4935E-01   2.3115E+01  0.000E+00  0.000E+00  0.000E+00  1.05351E+03  1.156E+00  1.200E+01  6.000E-02  1.385E+00
   1    3    5     3     1    2.0000E+00  2.8252E-01   1.7175E+00  0.000E+00  0.000E+00  0.000E+00  1.07555E+03  1.909E+00  9.636E+00  7.227E-02  1.955E+00
   1    3    6     3     2    1.7175E+00  2.4905E-01   1.4684E+00  0.000E+00  0.000E+00  0.000E+00  1.07264E+03  1.727E+00  8.909E+00  6.682E-02  1.864E+00
   1    3    7     3     3    1.4684E+00  1.9718E-01   1.2712E+00  0.000E+00  0.000E+00  0.000E+00  1.06987E+03  1.555E+00  8.218E+00  5.547E-02  1.777E+00
   1    4    8     3     4    1.2712E+00  2.2567E-01   1.0456E+00  0.000E+00  0.000E+00  0.000E+00  1.06682E+03  1.364E+00  7.455E+00  6.709E-02  1.682E+00
   1    5    8     3     5    1.0456E+00  1.5790E-01   8.8768E-01  0.000E+00  0.000E+00  0.000E+00  1.06362E+03  1.164E+00  6.655E+00  4.991E-02  1.582E+00
   1    6    8     3     6    8.8768E-01  5.5980E-02   8.3170E-01  0.000E+00  0.000E+00  0.000E+00  1.06158E+03  1.036E+00  6.145E+00  1.844E-02  1.518E+00
   1    5   10     4     1    1.0000E+01  9.0919E-02   9.9091E+00  0.000E+00  0.000E+00  0.000E+00  1.07836E+03  6.368E-01  1.000E+01  2.500E-02  1.212E+00
   1    5    9     4     2    9.9091E+00  1.8158E-01   9.7275E+00  0.000E+00  0.000E+00  0.000E+00  1.07154E+03  6.315E-01  1.000E+01  5.000E-02  1.211E+00
   1    6    8     4     3    9.7275E+00  1.2689E-01   9.6006E+00  0.000E+00  0.000E+00  0.000E+00  1.06381E+03  6.256E-01  1.000E+01  3.500E-02  1.209E+00
   1    6    8     5     1    1.0432E+01  2.2686E-01   1.0205E+01  0.000E+00  0.000E+00  0.000E+00  1.05868E+03  6.790E-01  1.542E+01  6.166E-02  1.226E+00
   1    7    7     5     2    1.0205E+01  2.7894E-01   9.9265E+00  0.000E+00  0.000E+00  0.000E+00  1.05417E+03  6.732E-01  1.519E+01  7.594E-02  1.224E+00
   1    8    7     5     3    9.9265E+00  1.9221E-01   9.7343E+00  0.000E+00  0.000E+00  0.000E+00  1.04992E+03  6.676E-01  1.497E+01  5.241E-02  1.223E+00
   1    8    6     5     4    9.7343E+00  1.3577E-01   9.5985E+00  0.000E+00  0.000E+00  0.000E+00  1.04691E+03  6.637E-01  1.482E+01  3.706E-02  1.221E+00
   1    9    6     6     1    3.2714E+01  2.6588E-01   3.2448E+01  0.000E+00  0.000E+00  0.000E+00  1.04416E+03  1.431E+00  1.200E+01  6.000E-02  1.477E+00
   1   10    7     6     2    3.2448E+01  2.6546E-01   3.2183E+01  0.000E+00  0.000E+00  0.000E+00  1.03961E+03  1.424E+00  1.200E+01  6.000E-02  1.475E+00
   1   11    7     6     3    3.2183E+01  2.6504E-01   3.1918E+01  0.000E+00  0.000E+00  0.000E+00  1.03505E+03  1.417E+00  1.200E+01  6.000E-02  1.472E+00
   1   12    7     6     4    3.1918E+01  2.6462E-01   3.1653E+01  0.000E+00  0.000E+00  0.000E+00  1.03050E+03  1.410E+00  1.200E+01  6.000E-02  1.470E+00
   1   13    7     6     5    3.1653E+01  2.4764E-03   3.1651E+01  0.000E+00  0.000E+00  0.000E+00  1.02732E+03  1.407E+00  1.200E+01  2.400E-02  3.439E-02
   1   14    9     7     1    1.5000E+02  1.3319E+00   1.4867E+02  0.000E+00  0.000E+00  0.000E+00  1.03987E+03  2.288E+00  5.529E+01  5.593E-01  7.938E-01
   1   13    8     7     2    1.4867E+02  1.7998E+00   1.4687E+02  0.000E+00  0.000E+00  0.000E+00  1.03478E+03  2.279E+00  5.526E+01  6.148E-01  9.759E-01
   1   13    7     7     3    1.4687E+02  1.3837E+00   1.4548E+02  0.000E+00  0.000E+00  0.000E+00  1.02969E+03  2.271E+00  5.522E+01  5.585E-01  8.259E-01
   1   13    6     8     1    1.7714E+02  8.5928E-01   1.7628E+02  0.000E+00  0.000E+00  0.000E+00  1.02487E+03  2.995E+00  4.343E+01  4.426E-01  6.472E-01
   1   13    5     8     2    1.7628E+02  1.0407E-01   1.7617E+02  0.000E+00  0.000E+00  0.000E+00  1.01862E+03  2.992E+00  4.339E+01  4.421E-01  7.846E-02
   1   13    4     8     3    1.7617E+02 -2.7010E+00   1.7887E+02  0.000E+00  0.000E+00  0.000E+00  1.01238E+03  3.001E+00  4.351E+01  4.434E+00 -2.031E-01
   1   13    3     8     4    1.7887E+02 -3.7728E+00   1.8265E+02  0.000E+00  0.000E+00  0.000E+00  1.00615E+03  3.021E+00  4.380E+01  4.464E+00 -2.817E-01
   1   13    2     8     5    1.8265E+02 -2.6141E+00   1.8526E+02  0.000E+00  0.000E+00  0.000E+00  9.99916E+02  3.041E+00  4.409E+01  4.493E+00 -1.939E-01
   1   13    1     8     6    1.8526E+02 -2.0141E+00   1.8727E+02  0.000E+00  0.000E+00  0.000E+00  9.94930E+02  3.055E+00  4.430E+01  2.709E+00 -2.479E-01
   1    8    6     9     1    0.0000E+00  0.0000E+00   0.0000E+00  0.000E+00  0.000E+00  0.000E+00  1.07875E+03  0.000E+00  4.000E+00  0.000E+00  1.000E+00
   1    8    5     9     2    0.0000E+00  0.0000E+00   0.0000E+00  0.000E+00  0.000E+00  0.000E+00  1.07825E+03  0.000E+00  4.000E+00  0.000E+00  1.000E+00





UNSATURATED ZONE PACKAGE VOLUMETRIC BUDGET FOR  TIME STEP    30 STRESS PERIOD   45
  ------------------------------------------------------------------------------



     CUMULATIVE VOLUMES      L**3       RATES FOR THIS TIME STEP      L**3/T
     ------------------                 ------------------------

           IN:                                      IN:
           ---                                      ---
        INFILTRATION =   510957924.2170          INFILTRATION =           4.4075

          OUT:                                     OUT:
          ----                                     ----
              UZF ET =   382677880.8337                UZF ET =           4.4075
        UZF RECHARGE =     2053800.1856          UZF RECHARGE =       0.0000E+00

            IN - OUT =   126226243.1977              IN - OUT =       0.0000E+00

          STORAGE:                                 STORAGE:
          --------                                 --------
      STORAGE CHANGE =   126228454.0494        STORAGE CHANGE =      -3.8593E-14

 PERCENT DISCREPANCY IS DIFFERENCE BETWEEN IN-OUT MINUS CHANGE IN STORAGE
 DIVIDED BY THE AVERAGE OF IN AND OUT TIMES 100

 PERCENT DISCREPANCY =          -0.00     PERCENT DISCREPANCY =           0.00






1
  VOLUMETRIC BUDGET FOR ENTIRE MODEL AT END OF TIME STEP   30, STRESS PERIOD  45
  ------------------------------------------------------------------------------

     CUMULATIVE VOLUMES      L**3       RATES FOR THIS TIME STEP      L**3/T
     ------------------                 ------------------------

           IN:                                      IN:
           ---                                      ---
               AG WELLS  =           0.0000                 AG WELLS  =           0.0000
        DIVERSION SEGMEN =      848802.5000          DIVERSION SEGMEN =           0.0000
    TS         GW IRRIGA =           0.0000      TS         GW IRRIGA =           0.0000
    TION         SW IRRI =           0.0000      TION         SW IRRI =           0.0000
    GATION      SYSTEM L =           0.0000      GATION      SYSTEM L =           0.0000
    OSSES GW      SYSTEM =           0.1856      OSSES GW      SYSTEM =           0.0000

                TOTAL IN =      848802.6875                  TOTAL IN =           0.0000

          OUT:                                     OUT:
          ----                                     ----
               AG WELLS  =           0.0000                 AG WELLS  =           0.0000
        DIVERSION SEGMEN =           0.0000          DIVERSION SEGMEN =           0.0000
    TS         GW IRRIGA =           0.0000      TS         GW IRRIGA =           0.0000
    TION         SW IRRI =      848819.6875      TION         SW IRRI =           0.0000
    GATION      SYSTEM L =           0.0000      GATION      SYSTEM L =           0.0000
    OSSES GW      SYSTEM =           0.0000      OSSES GW      SYSTEM =           0.0000

               TOTAL OUT =      848819.6875                 TOTAL OUT =           0.0000

                IN - OUT =         -17.0000                  IN - OUT =           0.0000

     PERCENT DISCREPANCY =          -0.00         PERCENT DISCREPANCY =           0.00



1
  VOLUMETRIC BUDGET FOR ENTIRE MODEL AT END OF TIME STEP   30, STRESS PERIOD  45
  ------------------------------------------------------------------------------

     CUMULATIVE VOLUMES      L**3       RATES FOR THIS TIME STEP      L**3/T
     ------------------                 ------------------------

           IN:                                      IN:
           ---                                      ---
             STORAGE     =    55855620.0000               STORAGE     =           0.2609
       CONSTANT HEAD     =           0.0000         CONSTANT HEAD     =           0.0000
     HEAD DEP BOUNDS     =    33074966.0000       HEAD DEP BOUNDS     =           0.2855
      STREAM LEAKAGE     =  1384229504.0000        STREAM LEAKAGE     =          11.5774
        UZF RECHARGE     =     2053800.1250          UZF RECHARGE     =           0.0000
               GW ET     =           0.0000                 GW ET     =           0.0000
     SURFACE LEAKAGE     =           0.0000       SURFACE LEAKAGE     =           0.0000
           AG WELLS      =           0.0000             AG WELLS      =           0.0000

                TOTAL IN =  1475213824.0000                  TOTAL IN =          12.1238

          OUT:                                     OUT:
          ----                                     ----
             STORAGE     =   175282224.0000               STORAGE     =           0.7302
       CONSTANT HEAD     =           0.0000         CONSTANT HEAD     =           0.0000
     HEAD DEP BOUNDS     =    33875908.0000       HEAD DEP BOUNDS     =           0.2916
      STREAM LEAKAGE     =  1246272512.0000        STREAM LEAKAGE     =          11.1021
        UZF RECHARGE     =           0.0000          UZF RECHARGE     =           0.0000
               GW ET     =    19807256.0000                 GW ET     =           0.0000
     SURFACE LEAKAGE     =           0.0000       SURFACE LEAKAGE     =           0.0000
           AG WELLS      =           0.0000             AG WELLS      =           0.0000

               TOTAL OUT =  1475237888.0000                 TOTAL OUT =          12.1239

                IN - OUT =      -24064.0000                  IN - OUT =      -1.2970E-04

     PERCENT DISCREPANCY =          -0.00         PERCENT DISCREPANCY =          -0.00






         TIME SUMMARY AT END OF TIME STEP   30 IN STRESS PERIOD   45
                    SECONDS     MINUTES      HOURS       DAYS        YEARS
                    -----------------------------------------------------------
   TIME STEP LENGTH  87667.      1461.1      24.352      1.0147     2.77799E-03
 STRESS PERIOD TIME 2.63000E+06  43833.      730.56      30.440     8.33397E-02
         TOTAL TIME 1.15805E+08 1.93009E+06  32168.      1340.3      3.6696    
1
1
                            STRESS PERIOD NO.   46, LENGTH =   2630000.    
                            -----------------------------------------------

                              NUMBER OF TIME STEPS =    30

                               MULTIPLIER FOR DELT =     1.000

                            INITIAL TIME STEP SIZE =   87666.66    

 REUSING NON-PARAMETER GHB CELLS FROM LAST STRESS PERIOD

      2 GHB CELLS

 REUSING STREAM SEGMENT DATA FROM LAST STRESS PERIOD



            AREAL INFILTRATION RATE
 READING ON UNIT   19 WITH FORMAT: (10F4.0)            

            1           2           3           4           5           6           7           8           9          10
 ........................................................................................................................
   1   1.2000E-09   0.000       0.000       0.000       0.000       0.000       0.000       0.000       0.000       0.000    
   2   2.1000E-09  2.0000E-09  8.0000E-10  8.5000E-09   0.000       0.000       0.000       0.000       0.000       0.000    
   3   5.0000E-10  1.1000E-09  8.8000E-09  5.5000E-09   0.000       0.000       0.000       0.000       0.000       0.000    
   4   8.5000E-09  1.1000E-09  1.1000E-09  1.1000E-09  2.0000E-09   0.000       0.000       0.000       0.000       0.000    
   5   8.5000E-09  1.1000E-09  1.1000E-09  1.1000E-09  1.1000E-09   0.000       0.000       0.000       0.000       0.000    
   6   8.5000E-09  5.2000E-09  2.1000E-09  1.1000E-09  1.5000E-09   0.000       0.000       0.000       0.000       0.000    
   7   8.5000E-09  5.2000E-09  2.1000E-09  1.2000E-09  2.0000E-09   0.000       0.000       0.000       0.000       0.000    
   8   5.0000E-10  5.2000E-09  2.1000E-09  1.2000E-09  5.0000E-09   0.000       0.000       0.000       0.000       0.000    
   9   5.0000E-10  5.2000E-09  2.1000E-09  1.2000E-09  5.0000E-09   0.000       0.000       0.000       0.000       0.000    
  10   5.0000E-10  5.2000E-09  2.1000E-09  1.2000E-09  5.8000E-09   0.000       0.000       0.000       0.000       0.000    
  11   1.0000E-10  1.1000E-09  1.1000E-09  1.2000E-09  5.0000E-09   0.000       0.000       0.000       0.000       0.000    
  12   1.1000E-09  1.1000E-09  1.1000E-09  1.1000E-09  2.0000E-09   0.000       0.000       0.000       0.000       0.000    
  13   1.1000E-09  2.2000E-09  2.2000E-09  2.1000E-09  1.0000E-09   0.000       0.000       0.000       0.000       0.000    
  14   2.0000E-10  5.5000E-09  5.5000E-09  5.2000E-09  1.0000E-09   0.000       0.000       0.000       0.000       0.000    
  15    0.000      8.8000E-09  8.8000E-09   0.000       0.000       0.000       0.000       0.000       0.000       0.000    

                  ET RATE =  7.500000E-08

 USING ET EXTINCTION DEPTH FROM PREVIOUS STRESS PERIOD. CURRENT PERIOD IS:      46

 USING EXTINCTION WATER CONTENT FROM PREVIOUS STRESS PERIOD. CURRENT PERIOD IS:      46

 USING AIR ENTRY PRESSURE FROM PREVIOUS STRESS PERIOD. CURRENT PERIOD IS:      46

 USING ROOT PRESSURE HEAD FROM PREVIOUS STRESS PERIOD. CURRENT PERIOD IS:      46

 USING ROOT ACTIVITY FROM PREVIOUS STRESS PERIOD. CURRENT PERIOD IS:      46

 PROCESSING AG STRESS PERIOD DATA

 READING AG STRESS PERIOD DATA

 READING IRRIGATION SEGMENT

 READING IRRIGATION WELL

 READING SUPPLEMENTAL WELL

 END PROCESSING AG STRESS PERIOD DATA OPTIONS
 
 SOLVING FOR HEAD 
                                                   Max.-Head-Change                         Max.-Flux-Residual
  Residual-Control   Outer-Iter.   Inner-Iter.     Column Row Layer    Maximum-Head-Change  Column Row Layer    Maximum-Flux-Residual          L2-NORM 
          0                 1           2             2    1     1       0.1719413883E-02       2    1    1         0.8929100553E-01      0.1577217822E+00
          0                 2           2             2    1     1      -0.1672522002E-03       2    1    1        -0.8929108235E-02      0.1574883736E-01
          0                 3           1             2    1     1       0.1138925627E-04       2    1    1         0.6250377870E-03      0.1100250538E-02

    ------------------------------------------------
       NWT REQUIRED            3 OUTER ITERATIONS 
       AND A TOTAL OF          5 INNER ITERATIONS.
    ------------------------------------------------

 NO OUTPUT CONTROL FOR STRESS PERIOD   46   TIME STEP    1
 
 SOLVING FOR HEAD 
                                                   Max.-Head-Change                         Max.-Flux-Residual
  Residual-Control   Outer-Iter.   Inner-Iter.     Column Row Layer    Maximum-Head-Change  Column Row Layer    Maximum-Flux-Residual          L2-NORM 
          0                 1           2             2    1     1       0.1717006085E-02       2    1    1         0.8916537198E-01      0.1565122488E+00
          0                 2           2             2    1     1      -0.1670179856E-03       2    1    1        -0.8916544795E-02      0.1563009979E-01
          0                 3           1             2    1     1       0.1137330709E-04       2    1    1         0.6241583310E-03      0.1092307254E-02

    ------------------------------------------------
       NWT REQUIRED            3 OUTER ITERATIONS 
       AND A TOTAL OF          5 INNER ITERATIONS.
    ------------------------------------------------

 NO OUTPUT CONTROL FOR STRESS PERIOD   46   TIME STEP    2
 
 SOLVING FOR HEAD 
                                                   Max.-Head-Change                         Max.-Flux-Residual
  Residual-Control   Outer-Iter.   Inner-Iter.     Column Row Layer    Maximum-Head-Change  Column Row Layer    Maximum-Flux-Residual          L2-NORM 
          0                 1           2             2   13     1      -0.2836493937E-02       2   13    1        -0.1594810386E+00      0.3347381974E+00
          0                 2           2             7   13     1      -0.3069686477E-03       7   13    1        -0.1670369967E-01      0.3731308215E-01
          0                 3           1             7   13     1       0.2984650265E-04       7   13    1         0.1667601527E-02      0.2824478412E-02

    ------------------------------------------------
       NWT REQUIRED            3 OUTER ITERATIONS 
       AND A TOTAL OF          5 INNER ITERATIONS.
    ------------------------------------------------

 NO OUTPUT CONTROL FOR STRESS PERIOD   46   TIME STEP    3
 
 SOLVING FOR HEAD 
                                                   Max.-Head-Change                         Max.-Flux-Residual
  Residual-Control   Outer-Iter.   Inner-Iter.     Column Row Layer    Maximum-Head-Change  Column Row Layer    Maximum-Flux-Residual          L2-NORM 
          0                 1           2             2   13     1      -0.3321395923E-02       2   13    1        -0.1866975494E+00      0.3880268924E+00
          0                 2           2             2   13     1       0.3098653649E-03       4   13    1         0.1797285006E-01      0.3799513111E-01
          0                 3           1             4   13     1      -0.2053305807E-04       4   13    1        -0.1240335197E-02      0.2583928982E-02

    ------------------------------------------------
       NWT REQUIRED            3 OUTER ITERATIONS 
       AND A TOTAL OF          5 INNER ITERATIONS.
    ------------------------------------------------

 NO OUTPUT CONTROL FOR STRESS PERIOD   46   TIME STEP    4
 
 SOLVING FOR HEAD 
                                                   Max.-Head-Change                         Max.-Flux-Residual
  Residual-Control   Outer-Iter.   Inner-Iter.     Column Row Layer    Maximum-Head-Change  Column Row Layer    Maximum-Flux-Residual          L2-NORM 
          0                 1           2             2   13     1      -0.3078400944E-02       2   13    1        -0.1730120714E+00      0.3658734882E+00
          0                 2           2             2   13     1       0.2872464779E-03       2   13    1         0.1659441614E-01      0.3585026491E-01
          0                 3           1             4   13     1      -0.1868099007E-04       4   13    1        -0.1127619956E-02      0.2440319802E-02

    ------------------------------------------------
       NWT REQUIRED            3 OUTER ITERATIONS 
       AND A TOTAL OF          5 INNER ITERATIONS.
    ------------------------------------------------

 NO OUTPUT CONTROL FOR STRESS PERIOD   46   TIME STEP    5
 
 SOLVING FOR HEAD 
                                                   Max.-Head-Change                         Max.-Flux-Residual
  Residual-Control   Outer-Iter.   Inner-Iter.     Column Row Layer    Maximum-Head-Change  Column Row Layer    Maximum-Flux-Residual          L2-NORM 
          0                 1           2             2   13     1      -0.2853633332E-02       2   13    1        -0.1603545175E+00      0.3458017634E+00
          0                 2           2             2   13     1       0.2663249602E-03       2   13    1         0.1538327704E-01      0.3390980092E-01
          0                 3           1             2   13     1      -0.1709391343E-04       4   13    1        -0.1026301525E-02      0.2310895548E-02

    ------------------------------------------------
       NWT REQUIRED            3 OUTER ITERATIONS 
       AND A TOTAL OF          5 INNER ITERATIONS.
    ------------------------------------------------

 NO OUTPUT CONTROL FOR STRESS PERIOD   46   TIME STEP    6
 
 SOLVING FOR HEAD 
                                                   Max.-Head-Change                         Max.-Flux-Residual
  Residual-Control   Outer-Iter.   Inner-Iter.     Column Row Layer    Maximum-Head-Change  Column Row Layer    Maximum-Flux-Residual          L2-NORM 
          0                 1           2             2   13     1      -0.2645683688E-02       2   13    1        -0.1486451810E+00      0.3276149208E+00
          0                 2           2             2   13     1       0.2469519093E-03       2   13    1         0.1426182587E-01      0.3215301837E-01
          0                 3           1             2   13     1      -0.1584369634E-04       2   13    1        -0.9403950216E-03      0.2194439056E-02

    ------------------------------------------------
       NWT REQUIRED            3 OUTER ITERATIONS 
       AND A TOTAL OF          5 INNER ITERATIONS.
    ------------------------------------------------

 NO OUTPUT CONTROL FOR STRESS PERIOD   46   TIME STEP    7
 
 SOLVING FOR HEAD 
                                                   Max.-Head-Change                         Max.-Flux-Residual
  Residual-Control   Outer-Iter.   Inner-Iter.     Column Row Layer    Maximum-Head-Change  Column Row Layer    Maximum-Flux-Residual          L2-NORM 
          0                 1           2             2   13     1      -0.2453260412E-02       2   13    1        -0.1378113535E+00      0.3111259161E+00
          0                 2           2             2   13     1       0.2290019467E-03       2   13    1         0.1322296443E-01      0.3055847752E-01
          0                 3           1             2   13     1      -0.1468713512E-04       2   13    1        -0.8715808435E-03      0.2086959628E-02

    ------------------------------------------------
       NWT REQUIRED            3 OUTER ITERATIONS 
       AND A TOTAL OF          5 INNER ITERATIONS.
    ------------------------------------------------

 NO OUTPUT CONTROL FOR STRESS PERIOD   46   TIME STEP    8
 
 SOLVING FOR HEAD 
                                                   Max.-Head-Change                         Max.-Flux-Residual
  Residual-Control   Outer-Iter.   Inner-Iter.     Column Row Layer    Maximum-Head-Change  Column Row Layer    Maximum-Flux-Residual          L2-NORM 
          0                 1           2             2   13     1      -0.2275129240E-02       2   13    1        -0.1277831736E+00      0.2961797476E+00
          0                 2           2             2   13     1       0.2124145933E-03       2   13    1         0.1226304276E-01      0.2911402849E-01
          0                 3           1             2   13     1      -0.1362856765E-04       2   13    1        -0.8086211237E-03      0.1990254575E-02

    ------------------------------------------------
       NWT REQUIRED            3 OUTER ITERATIONS 
       AND A TOTAL OF          5 INNER ITERATIONS.
    ------------------------------------------------

 NO OUTPUT CONTROL FOR STRESS PERIOD   46   TIME STEP    9
 
 SOLVING FOR HEAD 
                                                   Max.-Head-Change                         Max.-Flux-Residual
  Residual-Control   Outer-Iter.   Inner-Iter.     Column Row Layer    Maximum-Head-Change  Column Row Layer    Maximum-Flux-Residual          L2-NORM 
          0                 1           2             2   13     1      -0.2110314840E-02       2   13    1        -0.1185056330E+00      0.2826213119E+00
          0                 2           2             2   13     1       0.1970507441E-03       2   13    1         0.1137397914E-01      0.2780702318E-01
          0                 3           1             2   13     1      -0.1266844773E-04       2   13    1        -0.7515197631E-03      0.1904099798E-02

    ------------------------------------------------
       NWT REQUIRED            3 OUTER ITERATIONS 
       AND A TOTAL OF          5 INNER ITERATIONS.
    ------------------------------------------------

 NO OUTPUT CONTROL FOR STRESS PERIOD   46   TIME STEP   10
 
 SOLVING FOR HEAD 
                                                   Max.-Head-Change                         Max.-Flux-Residual
  Residual-Control   Outer-Iter.   Inner-Iter.     Column Row Layer    Maximum-Head-Change  Column Row Layer    Maximum-Flux-Residual          L2-NORM 
          0                 1           2             2   13     1      -0.1957804175E-02       2   13    1        -0.1099216728E+00      0.2703230377E+00
          0                 2           2             2   13     1       0.1828190853E-03       2   13    1         0.1055058141E-01      0.2661892156E-01
          0                 3           1             2   13     1      -0.1174325889E-04       2   13    1        -0.6965020857E-03      0.1823962182E-02

    ------------------------------------------------
       NWT REQUIRED            3 OUTER ITERATIONS 
       AND A TOTAL OF          5 INNER ITERATIONS.
    ------------------------------------------------

 NO OUTPUT CONTROL FOR STRESS PERIOD   46   TIME STEP   11
 
 SOLVING FOR HEAD 
                                                   Max.-Head-Change                         Max.-Flux-Residual
  Residual-Control   Outer-Iter.   Inner-Iter.     Column Row Layer    Maximum-Head-Change  Column Row Layer    Maximum-Flux-Residual          L2-NORM 
          0                 1           2             2   13     1      -0.1816603864E-02       2   13    1        -0.1019750912E+00      0.2591552326E+00
          0                 2           2             2   13     1       0.1696457423E-03       2   13    1         0.9788472355E-02      0.2554195502E-01
          0                 3           1             2    1     1       0.1105119264E-04       2   13    1        -0.6456864376E-03      0.1753093347E-02

    ------------------------------------------------
       NWT REQUIRED            3 OUTER ITERATIONS 
       AND A TOTAL OF          5 INNER ITERATIONS.
    ------------------------------------------------

 NO OUTPUT CONTROL FOR STRESS PERIOD   46   TIME STEP   12
 
 SOLVING FOR HEAD 
                                                   Max.-Head-Change                         Max.-Flux-Residual
  Residual-Control   Outer-Iter.   Inner-Iter.     Column Row Layer    Maximum-Head-Change  Column Row Layer    Maximum-Flux-Residual          L2-NORM 
          0                 1           2             2   13     1      -0.1685901219E-02       2   13    1        -0.9462009157E-01      0.2490042105E+00
          0                 2           2             2    1     1      -0.1618263773E-03       2   13    1         0.9083419175E-02      0.2456234150E-01
          0                 3           1             2    1     1       0.1101977450E-04       2    1    1         0.6056347637E-03      0.1687211507E-02

    ------------------------------------------------
       NWT REQUIRED            3 OUTER ITERATIONS 
       AND A TOTAL OF          5 INNER ITERATIONS.
    ------------------------------------------------

 NO OUTPUT CONTROL FOR STRESS PERIOD   46   TIME STEP   13
 
 SOLVING FOR HEAD 
                                                   Max.-Head-Change                         Max.-Flux-Residual
  Residual-Control   Outer-Iter.   Inner-Iter.     Column Row Layer    Maximum-Head-Change  Column Row Layer    Maximum-Flux-Residual          L2-NORM 
          0                 1           2             2    1     1       0.1658900474E-02       2   13    1        -0.8781143155E-01      0.2397731617E+00
          0                 2           2             2    1     1      -0.1613659442E-03       2    1    1        -0.8627214220E-02      0.2367177739E-01
          0                 3           1             2    1     1       0.1098842073E-04       2    1    1         0.6039051674E-03      0.1627375407E-02

    ------------------------------------------------
       NWT REQUIRED            3 OUTER ITERATIONS 
       AND A TOTAL OF          5 INNER ITERATIONS.
    ------------------------------------------------

 NO OUTPUT CONTROL FOR STRESS PERIOD   46   TIME STEP   14
 
 SOLVING FOR HEAD 
                                                   Max.-Head-Change                         Max.-Flux-Residual
  Residual-Control   Outer-Iter.   Inner-Iter.     Column Row Layer    Maximum-Head-Change  Column Row Layer    Maximum-Flux-Residual          L2-NORM 
          0                 1           2             2    1     1       0.1654198695E-02       2    1    1         0.8602661095E-01      0.2313738051E+00
          0                 2           2             2    1     1      -0.1609085873E-03       2    1    1        -0.8602671842E-02      0.2286251152E-01
          0                 3           1             2    1     1       0.1095727595E-04       2    1    1         0.6021871642E-03      0.1575068393E-02

    ------------------------------------------------
       NWT REQUIRED            3 OUTER ITERATIONS 
       AND A TOTAL OF          5 INNER ITERATIONS.
    ------------------------------------------------

 NO OUTPUT CONTROL FOR STRESS PERIOD   46   TIME STEP   15
 
 SOLVING FOR HEAD 
                                                   Max.-Head-Change                         Max.-Flux-Residual
  Residual-Control   Outer-Iter.   Inner-Iter.     Column Row Layer    Maximum-Head-Change  Column Row Layer    Maximum-Flux-Residual          L2-NORM 
          0                 1           2             2    1     1       0.1649550434E-02       2    1    1         0.8578398398E-01      0.2237127068E+00
          0                 2           2             2    1     1      -0.1604564370E-03       2    1    1        -0.8578409036E-02      0.2212414164E-01
          0                 3           1             2    1     1       0.1092648689E-04       2    1    1         0.6004887935E-03      0.1525621542E-02

    ------------------------------------------------
       NWT REQUIRED            3 OUTER ITERATIONS 
       AND A TOTAL OF          5 INNER ITERATIONS.
    ------------------------------------------------

 NO OUTPUT CONTROL FOR STRESS PERIOD   46   TIME STEP   16
 
 SOLVING FOR HEAD 
                                                   Max.-Head-Change                         Max.-Flux-Residual
  Residual-Control   Outer-Iter.   Inner-Iter.     Column Row Layer    Maximum-Head-Change  Column Row Layer    Maximum-Flux-Residual          L2-NORM 
          0                 1           2             2    1     1       0.1644910924E-02       2    1    1         0.8554182030E-01      0.2167240393E+00
          0                 2           2             2    1     1      -0.1600051377E-03       2    1    1        -0.8554192580E-02      0.2144943003E-01
          0                 3           1             2    1     1       0.1089575486E-04       2    1    1         0.5987936379E-03      0.1481293007E-02

    ------------------------------------------------
       NWT REQUIRED            3 OUTER ITERATIONS 
       AND A TOTAL OF          5 INNER ITERATIONS.
    ------------------------------------------------

 NO OUTPUT CONTROL FOR STRESS PERIOD   46   TIME STEP   17
 
 SOLVING FOR HEAD 
                                                   Max.-Head-Change                         Max.-Flux-Residual
  Residual-Control   Outer-Iter.   Inner-Iter.     Column Row Layer    Maximum-Head-Change  Column Row Layer    Maximum-Flux-Residual          L2-NORM 
          0                 1           2             2    1     1       0.1640302014E-02       2    1    1         0.8530126612E-01      0.2103321112E+00
          0                 2           2             2    1     1      -0.1595568149E-03       2    1    1        -0.8530137057E-02      0.2083226767E-01
          0                 3           1             2    1     1       0.1086522591E-04       2    1    1         0.5971097527E-03      0.1439405523E-02

    ------------------------------------------------
       NWT REQUIRED            3 OUTER ITERATIONS 
       AND A TOTAL OF          5 INNER ITERATIONS.
    ------------------------------------------------

 NO OUTPUT CONTROL FOR STRESS PERIOD   46   TIME STEP   18
 
 SOLVING FOR HEAD 
                                                   Max.-Head-Change                         Max.-Flux-Residual
  Residual-Control   Outer-Iter.   Inner-Iter.     Column Row Layer    Maximum-Head-Change  Column Row Layer    Maximum-Flux-Residual          L2-NORM 
          0                 1           2             2    1     1       0.1635723442E-02       2    1    1         0.8506229852E-01      0.2044743177E+00
          0                 2           2             2    1     1      -0.1591114434E-03       2    1    1        -0.8506240229E-02      0.2026593939E-01
          0                 3           1             2    1     1       0.1083489741E-04       2    1    1         0.5954369641E-03      0.1402487268E-02

    ------------------------------------------------
       NWT REQUIRED            3 OUTER ITERATIONS 
       AND A TOTAL OF          5 INNER ITERATIONS.
    ------------------------------------------------

 NO OUTPUT CONTROL FOR STRESS PERIOD   46   TIME STEP   19
 
 SOLVING FOR HEAD 
                                                   Max.-Head-Change                         Max.-Flux-Residual
  Residual-Control   Outer-Iter.   Inner-Iter.     Column Row Layer    Maximum-Head-Change  Column Row Layer    Maximum-Flux-Residual          L2-NORM 
          0                 1           2             2    1     1       0.1631197147E-02       2    1    1         0.8482605991E-01      0.1991110372E+00
          0                 2           2             2    1     1      -0.1586711574E-03       2    1    1        -0.8482616284E-02      0.1974830702E-01
          0                 3           1             2    1     1       0.1080491588E-04       2    1    1         0.5937832974E-03      0.1367914287E-02

    ------------------------------------------------
       NWT REQUIRED            3 OUTER ITERATIONS 
       AND A TOTAL OF          5 INNER ITERATIONS.
    ------------------------------------------------

 NO OUTPUT CONTROL FOR STRESS PERIOD   46   TIME STEP   20
 
 SOLVING FOR HEAD 
                                                   Max.-Head-Change                         Max.-Flux-Residual
  Residual-Control   Outer-Iter.   Inner-Iter.     Column Row Layer    Maximum-Head-Change  Column Row Layer    Maximum-Flux-Residual          L2-NORM 
          0                 1           2             2    1     1       0.1626678270E-02       2    1    1         0.8459021984E-01      0.1941725040E+00
          0                 2           2             2    1     1      -0.1582315928E-03       2    1    1        -0.8459032191E-02      0.1927050978E-01
          0                 3           1             2    1     1       0.1077498357E-04       2    1    1         0.5921324179E-03      0.1335069823E-02

    ------------------------------------------------
       NWT REQUIRED            3 OUTER ITERATIONS 
       AND A TOTAL OF          5 INNER ITERATIONS.
    ------------------------------------------------

 NO OUTPUT CONTROL FOR STRESS PERIOD   46   TIME STEP   21
 
 SOLVING FOR HEAD 
                                                   Max.-Head-Change                         Max.-Flux-Residual
  Residual-Control   Outer-Iter.   Inner-Iter.     Column Row Layer    Maximum-Head-Change  Column Row Layer    Maximum-Flux-Residual          L2-NORM 
          0                 1           2             2    1     1       0.1622188785E-02       2    1    1         0.8435592035E-01      0.1896269461E+00
          0                 2           2             2    1     1      -0.1577948865E-03       2    1    1        -0.8435602145E-02      0.1883030831E-01
          0                 3           1             2    1     1       0.1074524510E-04       2    1    1         0.5904923037E-03      0.1306257993E-02

    ------------------------------------------------
       NWT REQUIRED            3 OUTER ITERATIONS 
       AND A TOTAL OF          5 INNER ITERATIONS.
    ------------------------------------------------

 NO OUTPUT CONTROL FOR STRESS PERIOD   46   TIME STEP   22
 
 SOLVING FOR HEAD 
                                                   Max.-Head-Change                         Max.-Flux-Residual
  Residual-Control   Outer-Iter.   Inner-Iter.     Column Row Layer    Maximum-Head-Change  Column Row Layer    Maximum-Flux-Residual          L2-NORM 
          0                 1           2             2    1     1       0.1617728377E-02       2    1    1         0.8412314485E-01      0.1854281320E+00
          0                 2           2             2    1     1      -0.1573610090E-03       2    1    1        -0.8412324493E-02      0.1842422257E-01
          0                 3           1             2    1     1       0.1071569999E-04       2    1    1         0.5888628851E-03      0.1278675557E-02

    ------------------------------------------------
       NWT REQUIRED            3 OUTER ITERATIONS 
       AND A TOTAL OF          5 INNER ITERATIONS.
    ------------------------------------------------

 NO OUTPUT CONTROL FOR STRESS PERIOD   46   TIME STEP   23
 
 SOLVING FOR HEAD 
                                                   Max.-Head-Change                         Max.-Flux-Residual
  Residual-Control   Outer-Iter.   Inner-Iter.     Column Row Layer    Maximum-Head-Change  Column Row Layer    Maximum-Flux-Residual          L2-NORM 
          0                 1           2             2    1     1       0.1613296734E-02       2    1    1         0.8389187693E-01      0.1815489674E+00
          0                 2           2             2    1     1      -0.1569299298E-03       2    1    1        -0.8389197631E-02      0.1804700394E-01
          0                 3           1             2    1     1       0.1068634493E-04       2    1    1         0.5872439877E-03      0.1252890542E-02

    ------------------------------------------------
       NWT REQUIRED            3 OUTER ITERATIONS 
       AND A TOTAL OF          5 INNER ITERATIONS.
    ------------------------------------------------

 NO OUTPUT CONTROL FOR STRESS PERIOD   46   TIME STEP   24
 
 SOLVING FOR HEAD 
                                                   Max.-Head-Change                         Max.-Flux-Residual
  Residual-Control   Outer-Iter.   Inner-Iter.     Column Row Layer    Maximum-Head-Change  Column Row Layer    Maximum-Flux-Residual          L2-NORM 
          0                 1           2             2    1     1       0.1608893652E-02       2    1    1         0.8366210046E-01      0.1779542502E+00
          0                 2           2             2    1     1      -0.1565016288E-03       2    1    1        -0.8366219894E-02      0.1769881184E-01
          0                 3           1             2    1     1       0.1065717945E-04       2    1    1         0.5856355573E-03      0.1230227143E-02

    ------------------------------------------------
       NWT REQUIRED            3 OUTER ITERATIONS 
       AND A TOTAL OF          5 INNER ITERATIONS.
    ------------------------------------------------

 NO OUTPUT CONTROL FOR STRESS PERIOD   46   TIME STEP   25
 
 SOLVING FOR HEAD 
                                                   Max.-Head-Change                         Max.-Flux-Residual
  Residual-Control   Outer-Iter.   Inner-Iter.     Column Row Layer    Maximum-Head-Change  Column Row Layer    Maximum-Flux-Residual          L2-NORM 
          0                 1           2             2    1     1       0.1604518724E-02       2    1    1         0.8343380483E-01      0.1746136320E+00
          0                 2           2             2    1     1      -0.1560760662E-03       2    1    1        -0.8343390262E-02      0.1737403966E-01
          0                 3           1             2    1     1       0.1062819999E-04       2    1    1         0.5840374621E-03      0.1208192839E-02

    ------------------------------------------------
       NWT REQUIRED            3 OUTER ITERATIONS 
       AND A TOTAL OF          5 INNER ITERATIONS.
    ------------------------------------------------

 NO OUTPUT CONTROL FOR STRESS PERIOD   46   TIME STEP   26
 
 SOLVING FOR HEAD 
                                                   Max.-Head-Change                         Max.-Flux-Residual
  Residual-Control   Outer-Iter.   Inner-Iter.     Column Row Layer    Maximum-Head-Change  Column Row Layer    Maximum-Flux-Residual          L2-NORM 
          0                 1           2             2    1     1       0.1600171785E-02       2    1    1         0.8320696898E-01      0.1714996324E+00
          0                 2           2             2    1     1      -0.1556532267E-03       2    1    1        -0.8320706596E-02      0.1707120670E-01
          0                 3           1             2    1     1       0.1059940656E-04       2    1    1         0.5824496378E-03      0.1187726427E-02

    ------------------------------------------------
       NWT REQUIRED            3 OUTER ITERATIONS 
       AND A TOTAL OF          5 INNER ITERATIONS.
    ------------------------------------------------

 NO OUTPUT CONTROL FOR STRESS PERIOD   46   TIME STEP   27
 
 SOLVING FOR HEAD 
                                                   Max.-Head-Change                         Max.-Flux-Residual
  Residual-Control   Outer-Iter.   Inner-Iter.     Column Row Layer    Maximum-Head-Change  Column Row Layer    Maximum-Flux-Residual          L2-NORM 
          0                 1           2             2    1     1       0.1595852406E-02       2    1    1         0.8298158432E-01      0.1685999459E+00
          0                 2           2             2    1     1      -0.1552330679E-03       2    1    1        -0.8298168065E-02      0.1678867582E-01
          0                 3           1             2    1     1       0.1057079536E-04       2    1    1         0.5808719349E-03      0.1168412164E-02

    ------------------------------------------------
       NWT REQUIRED            3 OUTER ITERATIONS 
       AND A TOTAL OF          5 INNER ITERATIONS.
    ------------------------------------------------

 NO OUTPUT CONTROL FOR STRESS PERIOD   46   TIME STEP   28
 
 SOLVING FOR HEAD 
                                                   Max.-Head-Change                         Max.-Flux-Residual
  Residual-Control   Outer-Iter.   Inner-Iter.     Column Row Layer    Maximum-Head-Change  Column Row Layer    Maximum-Flux-Residual          L2-NORM 
          0                 1           2             2    1     1       0.1591560400E-02       2    1    1         0.8275762865E-01      0.1658780942E+00
          0                 2           2             2    1     1      -0.1548155713E-03       2    1    1        -0.8275772415E-02      0.1652353472E-01
          0                 3           1             2    1     1       0.1054236522E-04       2    1    1         0.5793042206E-03      0.1150807221E-02

    ------------------------------------------------
       NWT REQUIRED            3 OUTER ITERATIONS 
       AND A TOTAL OF          5 INNER ITERATIONS.
    ------------------------------------------------

 NO OUTPUT CONTROL FOR STRESS PERIOD   46   TIME STEP   29
 
 SOLVING FOR HEAD 
                                                   Max.-Head-Change                         Max.-Flux-Residual
  Residual-Control   Outer-Iter.   Inner-Iter.     Column Row Layer    Maximum-Head-Change  Column Row Layer    Maximum-Flux-Residual          L2-NORM 
          0                 1           2             2    1     1       0.1587295481E-02       2    1    1         0.8253509224E-01      0.1633346762E+00
          0                 2           2             2    1     1      -0.1544007101E-03       2    1    1        -0.8253518703E-02      0.1627540784E-01
          0                 3           1             2    1     1       0.1051411472E-04       2    1    1         0.5777464710E-03      0.1131990704E-02

    ------------------------------------------------
       NWT REQUIRED            3 OUTER ITERATIONS 
       AND A TOTAL OF          5 INNER ITERATIONS.
    ------------------------------------------------

 NO OUTPUT CONTROL FOR STRESS PERIOD   46   TIME STEP   30



 STREAM LISTING     PERIOD     46   STEP       30

 LAYER ROW COL. STREAM  RCH.  FLOW INTO     FLOW TO   FLOW OUT OF   OVRLND.     DIRECT     STREAM       STREAM     STREAM     STREAM   STREAMBED  STREAMBED
                SEG.NO.  NO.  STRM. RCH.    AQUIFER    STRM. RCH.    RUNOFF     PRECIP       ET          HEAD       DEPTH      WIDTH   CONDCTNC.   GRADIENT

   1    1    1     1     1    1.8749E+01  2.1264E-01   1.8537E+01  0.000E+00  0.000E+00  0.000E+00  1.09413E+03  1.078E+00  1.159E+01  5.215E-02  1.359E+00
   1    2    2     1     2    1.8537E+01  3.2801E-01   1.8209E+01  0.000E+00  0.000E+00  0.000E+00  1.08913E+03  1.073E+00  1.150E+01  8.053E-02  1.358E+00
   1    3    3     1     3    1.8209E+01  2.7848E-01   1.7930E+01  0.000E+00  0.000E+00  0.000E+00  1.08349E+03  1.068E+00  1.141E+01  6.845E-02  1.356E+00
   1    3    4     1     4    1.7930E+01  2.5541E-01   1.7675E+01  0.000E+00  0.000E+00  0.000E+00  1.07847E+03  1.064E+00  1.132E+01  6.285E-02  1.355E+00
   1    4    5     2     1    1.5675E+01  3.0476E-01   1.5370E+01  0.000E+00  0.000E+00  0.000E+00  1.07284E+03  9.072E-01  1.200E+01  7.800E-02  1.302E+00
   1    5    6     2     2    1.5370E+01  2.3387E-01   1.5136E+01  0.000E+00  0.000E+00  0.000E+00  1.06741E+03  8.978E-01  1.200E+01  6.000E-02  1.299E+00
   1    6    6     2     3    1.5136E+01  2.3337E-01   1.4903E+01  0.000E+00  0.000E+00  0.000E+00  1.06268E+03  8.895E-01  1.200E+01  6.000E-02  1.296E+00
   1    7    6     2     4    1.4903E+01  2.3287E-01   1.4670E+01  0.000E+00  0.000E+00  0.000E+00  1.05796E+03  8.812E-01  1.200E+01  6.000E-02  1.294E+00
   1    8    6     2     5    1.4670E+01  2.3237E-01   1.4438E+01  0.000E+00  0.000E+00  0.000E+00  1.05323E+03  8.728E-01  1.200E+01  6.000E-02  1.291E+00
   1    3    5     3     1    2.0000E+00  2.8252E-01   1.7175E+00  0.000E+00  0.000E+00  0.000E+00  1.07555E+03  1.909E+00  9.636E+00  7.227E-02  1.955E+00
   1    3    6     3     2    1.7175E+00  2.4905E-01   1.4684E+00  0.000E+00  0.000E+00  0.000E+00  1.07264E+03  1.727E+00  8.909E+00  6.682E-02  1.864E+00
   1    3    7     3     3    1.4684E+00  1.9718E-01   1.2712E+00  0.000E+00  0.000E+00  0.000E+00  1.06987E+03  1.555E+00  8.218E+00  5.547E-02  1.777E+00
   1    4    8     3     4    1.2712E+00  2.2567E-01   1.0456E+00  0.000E+00  0.000E+00  0.000E+00  1.06682E+03  1.364E+00  7.455E+00  6.709E-02  1.682E+00
   1    5    8     3     5    1.0456E+00  1.5790E-01   8.8768E-01  0.000E+00  0.000E+00  0.000E+00  1.06362E+03  1.164E+00  6.655E+00  4.991E-02  1.582E+00
   1    6    8     3     6    8.8768E-01  5.5980E-02   8.3170E-01  0.000E+00  0.000E+00  0.000E+00  1.06158E+03  1.036E+00  6.145E+00  1.844E-02  1.518E+00
   1    5   10     4     1    1.0000E+01  9.0919E-02   9.9091E+00  0.000E+00  0.000E+00  0.000E+00  1.07836E+03  6.368E-01  1.000E+01  2.500E-02  1.212E+00
   1    5    9     4     2    9.9091E+00  1.8158E-01   9.7275E+00  0.000E+00  0.000E+00  0.000E+00  1.07154E+03  6.315E-01  1.000E+01  5.000E-02  1.211E+00
   1    6    8     4     3    9.7275E+00  1.2689E-01   9.6006E+00  0.000E+00  0.000E+00  0.000E+00  1.06381E+03  6.256E-01  1.000E+01  3.500E-02  1.209E+00
   1    6    8     5     1    1.0432E+01  2.2686E-01   1.0205E+01  0.000E+00  0.000E+00  0.000E+00  1.05868E+03  6.790E-01  1.542E+01  6.166E-02  1.226E+00
   1    7    7     5     2    1.0205E+01  2.7894E-01   9.9265E+00  0.000E+00  0.000E+00  0.000E+00  1.05417E+03  6.732E-01  1.519E+01  7.594E-02  1.224E+00
   1    8    7     5     3    9.9265E+00  1.9221E-01   9.7343E+00  0.000E+00  0.000E+00  0.000E+00  1.04992E+03  6.676E-01  1.497E+01  5.241E-02  1.223E+00
   1    8    6     5     4    9.7343E+00  1.3577E-01   9.5985E+00  0.000E+00  0.000E+00  0.000E+00  1.04691E+03  6.637E-01  1.482E+01  3.706E-02  1.221E+00
   1    9    6     6     1    2.4036E+01  2.5133E-01   2.3785E+01  0.000E+00  0.000E+00  0.000E+00  1.04392E+03  1.189E+00  1.200E+01  6.000E-02  1.396E+00
   1   10    7     6     2    2.3785E+01  2.5088E-01   2.3534E+01  0.000E+00  0.000E+00  0.000E+00  1.03936E+03  1.181E+00  1.200E+01  6.000E-02  1.394E+00
   1   11    7     6     3    2.3534E+01  2.5043E-01   2.3284E+01  0.000E+00  0.000E+00  0.000E+00  1.03481E+03  1.174E+00  1.200E+01  6.000E-02  1.391E+00
   1   12    7     6     4    2.3284E+01  2.4998E-01   2.3034E+01  0.000E+00  0.000E+00  0.000E+00  1.03026E+03  1.166E+00  1.200E+01  6.000E-02  1.389E+00
   1   13    7     6     5    2.3034E+01 -2.9783E-02   2.3063E+01  0.000E+00  0.000E+00  0.000E+00  1.02707E+03  1.163E+00  1.200E+01  2.400E-01 -4.137E-02
   1   14    9     7     1    1.5000E+02  1.3318E+00   1.4867E+02  0.000E+00  0.000E+00  0.000E+00  1.03987E+03  2.288E+00  5.529E+01  5.593E-01  7.937E-01
   1   13    8     7     2    1.4867E+02  1.8008E+00   1.4687E+02  0.000E+00  0.000E+00  0.000E+00  1.03478E+03  2.279E+00  5.526E+01  6.148E-01  9.764E-01
   1   13    7     7     3    1.4687E+02  1.3929E+00   1.4547E+02  0.000E+00  0.000E+00  0.000E+00  1.02969E+03  2.271E+00  5.522E+01  5.585E-01  8.314E-01
   1   13    6     8     1    1.6854E+02  8.2959E-01   1.6771E+02  0.000E+00  0.000E+00  0.000E+00  1.02481E+03  2.940E+00  4.263E+01  4.344E-01  6.366E-01
   1   13    5     8     2    1.6771E+02  8.7640E-02   1.6762E+02  0.000E+00  0.000E+00  0.000E+00  1.01856E+03  2.937E+00  4.259E+01  4.340E-01  6.732E-02
   1   13    4     8     3    1.6762E+02 -2.7428E+00   1.7036E+02  0.000E+00  0.000E+00  0.000E+00  1.01232E+03  2.946E+00  4.271E+01  4.352E+00 -2.101E-01
   1   13    3     8     4    1.7036E+02 -3.7974E+00   1.7416E+02  0.000E+00  0.000E+00  0.000E+00  1.00609E+03  2.967E+00  4.302E+01  4.384E+00 -2.887E-01
   1   13    2     8     5    1.7416E+02 -2.6283E+00   1.7679E+02  0.000E+00  0.000E+00  0.000E+00  9.99862E+02  2.988E+00  4.332E+01  4.414E+00 -1.985E-01
   1   13    1     8     6    1.7679E+02 -2.0191E+00   1.7881E+02  0.000E+00  0.000E+00  0.000E+00  9.94877E+02  3.002E+00  4.353E+01  2.662E+00 -2.529E-01
   1    8    6     9     1    0.0000E+00  0.0000E+00   0.0000E+00  0.000E+00  0.000E+00  0.000E+00  1.07875E+03  0.000E+00  4.000E+00  0.000E+00  1.000E+00
   1    8    5     9     2    0.0000E+00  0.0000E+00   0.0000E+00  0.000E+00  0.000E+00  0.000E+00  1.07825E+03  0.000E+00  4.000E+00  0.000E+00  1.000E+00





UNSATURATED ZONE PACKAGE VOLUMETRIC BUDGET FOR  TIME STEP    30 STRESS PERIOD   46
  ------------------------------------------------------------------------------



     CUMULATIVE VOLUMES      L**3       RATES FOR THIS TIME STEP      L**3/T
     ------------------                 ------------------------

           IN:                                      IN:
           ---                                      ---
        INFILTRATION =   522549648.7751          INFILTRATION =           4.4075

          OUT:                                     OUT:
          ----                                     ----
              UZF ET =   394269605.3918                UZF ET =           4.4075
        UZF RECHARGE =     2053800.1856          UZF RECHARGE =       0.0000E+00

            IN - OUT =   126226243.1977              IN - OUT =       0.0000E+00

          STORAGE:                                 STORAGE:
          --------                                 --------
      STORAGE CHANGE =   126228454.0494        STORAGE CHANGE =      -8.7477E-14

 PERCENT DISCREPANCY IS DIFFERENCE BETWEEN IN-OUT MINUS CHANGE IN STORAGE
 DIVIDED BY THE AVERAGE OF IN AND OUT TIMES 100

 PERCENT DISCREPANCY =          -0.00     PERCENT DISCREPANCY =           0.00






1
  VOLUMETRIC BUDGET FOR ENTIRE MODEL AT END OF TIME STEP   30, STRESS PERIOD  46
  ------------------------------------------------------------------------------

     CUMULATIVE VOLUMES      L**3       RATES FOR THIS TIME STEP      L**3/T
     ------------------                 ------------------------

           IN:                                      IN:
           ---                                      ---
               AG WELLS  =           0.0000                 AG WELLS  =           0.0000
        DIVERSION SEGMEN =      848802.5000          DIVERSION SEGMEN =           0.0000
    TS         GW IRRIGA =           0.0000      TS         GW IRRIGA =           0.0000
    TION         SW IRRI =           0.0000      TION         SW IRRI =           0.0000
    GATION      SYSTEM L =           0.0000      GATION      SYSTEM L =           0.0000
    OSSES GW      SYSTEM =           0.1856      OSSES GW      SYSTEM =           0.0000

                TOTAL IN =      848802.6875                  TOTAL IN =           0.0000

          OUT:                                     OUT:
          ----                                     ----
               AG WELLS  =           0.0000                 AG WELLS  =           0.0000
        DIVERSION SEGMEN =           0.0000          DIVERSION SEGMEN =           0.0000
    TS         GW IRRIGA =           0.0000      TS         GW IRRIGA =           0.0000
    TION         SW IRRI =      848819.6875      TION         SW IRRI =           0.0000
    GATION      SYSTEM L =           0.0000      GATION      SYSTEM L =           0.0000
    OSSES GW      SYSTEM =           0.0000      OSSES GW      SYSTEM =           0.0000

               TOTAL OUT =      848819.6875                 TOTAL OUT =           0.0000

                IN - OUT =         -17.0000                  IN - OUT =           0.0000

     PERCENT DISCREPANCY =          -0.00         PERCENT DISCREPANCY =           0.00



1
  VOLUMETRIC BUDGET FOR ENTIRE MODEL AT END OF TIME STEP   30, STRESS PERIOD  46
  ------------------------------------------------------------------------------

     CUMULATIVE VOLUMES      L**3       RATES FOR THIS TIME STEP      L**3/T
     ------------------                 ------------------------

           IN:                                      IN:
           ---                                      ---
             STORAGE     =    57858564.0000               STORAGE     =           0.5530
       CONSTANT HEAD     =           0.0000         CONSTANT HEAD     =           0.0000
     HEAD DEP BOUNDS     =    33825804.0000       HEAD DEP BOUNDS     =           0.2855
      STREAM LEAKAGE     =  1413628288.0000        STREAM LEAKAGE     =          11.1586
        UZF RECHARGE     =     2053800.1250          UZF RECHARGE     =           0.0000
               GW ET     =           0.0000                 GW ET     =           0.0000
     SURFACE LEAKAGE     =           0.0000       SURFACE LEAKAGE     =           0.0000
           AG WELLS      =           0.0000             AG WELLS      =           0.0000

                TOTAL IN =  1507366400.0000                  TOTAL IN =          11.9971

          OUT:                                     OUT:
          ----                                     ----
             STORAGE     =   176762544.0000               STORAGE     =           0.4894
       CONSTANT HEAD     =           0.0000         CONSTANT HEAD     =           0.0000
     HEAD DEP BOUNDS     =    34640596.0000       HEAD DEP BOUNDS     =           0.2902
      STREAM LEAKAGE     =  1276179968.0000        STREAM LEAKAGE     =          11.2175
        UZF RECHARGE     =           0.0000          UZF RECHARGE     =           0.0000
               GW ET     =    19807256.0000                 GW ET     =           0.0000
     SURFACE LEAKAGE     =           0.0000       SURFACE LEAKAGE     =           0.0000
           AG WELLS      =           0.0000             AG WELLS      =           0.0000

               TOTAL OUT =  1507390336.0000                 TOTAL OUT =          11.9970

                IN - OUT =      -23936.0000                  IN - OUT =       2.2888E-05

     PERCENT DISCREPANCY =          -0.00         PERCENT DISCREPANCY =           0.00






         TIME SUMMARY AT END OF TIME STEP   30 IN STRESS PERIOD   46
                    SECONDS     MINUTES      HOURS       DAYS        YEARS
                    -----------------------------------------------------------
   TIME STEP LENGTH  87667.      1461.1      24.352      1.0147     2.77799E-03
 STRESS PERIOD TIME 2.63000E+06  43833.      730.56      30.440     8.33397E-02
         TOTAL TIME 1.18435E+08 1.97392E+06  32899.      1370.8      3.7530    
1
1
                            STRESS PERIOD NO.   47, LENGTH =   2630000.    
                            -----------------------------------------------

                              NUMBER OF TIME STEPS =    30

                               MULTIPLIER FOR DELT =     1.000

                            INITIAL TIME STEP SIZE =   87666.66    

 REUSING NON-PARAMETER GHB CELLS FROM LAST STRESS PERIOD

      2 GHB CELLS

 REUSING STREAM SEGMENT DATA FROM LAST STRESS PERIOD



            AREAL INFILTRATION RATE
 READING ON UNIT   19 WITH FORMAT: (10F4.0)            

            1           2           3           4           5           6           7           8           9          10
 ........................................................................................................................
   1   1.2000E-09   0.000       0.000       0.000       0.000       0.000       0.000       0.000       0.000       0.000    
   2   2.1000E-09  2.0000E-09  8.0000E-10  8.5000E-09   0.000       0.000       0.000       0.000       0.000       0.000    
   3   5.0000E-10  1.1000E-09  8.8000E-09  5.5000E-09   0.000       0.000       0.000       0.000       0.000       0.000    
   4   8.5000E-09  1.1000E-09  1.1000E-09  1.1000E-09  2.0000E-09   0.000       0.000       0.000       0.000       0.000    
   5   8.5000E-09  1.1000E-09  1.1000E-09  1.1000E-09  1.1000E-09   0.000       0.000       0.000       0.000       0.000    
   6   8.5000E-09  5.2000E-09  2.1000E-09  1.1000E-09  1.5000E-09   0.000       0.000       0.000       0.000       0.000    
   7   8.5000E-09  5.2000E-09  2.1000E-09  1.2000E-09  2.0000E-09   0.000       0.000       0.000       0.000       0.000    
   8   5.0000E-10  5.2000E-09  2.1000E-09  1.2000E-09  5.0000E-09   0.000       0.000       0.000       0.000       0.000    
   9   5.0000E-10  5.2000E-09  2.1000E-09  1.2000E-09  5.0000E-09   0.000       0.000       0.000       0.000       0.000    
  10   5.0000E-10  5.2000E-09  2.1000E-09  1.2000E-09  5.8000E-09   0.000       0.000       0.000       0.000       0.000    
  11   1.0000E-10  1.1000E-09  1.1000E-09  1.2000E-09  5.0000E-09   0.000       0.000       0.000       0.000       0.000    
  12   1.1000E-09  1.1000E-09  1.1000E-09  1.1000E-09  2.0000E-09   0.000       0.000       0.000       0.000       0.000    
  13   1.1000E-09  2.2000E-09  2.2000E-09  2.1000E-09  1.0000E-09   0.000       0.000       0.000       0.000       0.000    
  14   2.0000E-10  5.5000E-09  5.5000E-09  5.2000E-09  1.0000E-09   0.000       0.000       0.000       0.000       0.000    
  15    0.000      8.8000E-09  8.8000E-09   0.000       0.000       0.000       0.000       0.000       0.000       0.000    

                  ET RATE =  5.000000E-09

 USING ET EXTINCTION DEPTH FROM PREVIOUS STRESS PERIOD. CURRENT PERIOD IS:      47

 USING EXTINCTION WATER CONTENT FROM PREVIOUS STRESS PERIOD. CURRENT PERIOD IS:      47

 USING AIR ENTRY PRESSURE FROM PREVIOUS STRESS PERIOD. CURRENT PERIOD IS:      47

 USING ROOT PRESSURE HEAD FROM PREVIOUS STRESS PERIOD. CURRENT PERIOD IS:      47

 USING ROOT ACTIVITY FROM PREVIOUS STRESS PERIOD. CURRENT PERIOD IS:      47

 PROCESSING AG STRESS PERIOD DATA

 READING AG STRESS PERIOD DATA

 READING IRRIGATION SEGMENT

 READING IRRIGATION WELL

 READING SUPPLEMENTAL WELL

 END PROCESSING AG STRESS PERIOD DATA OPTIONS
 
 SOLVING FOR HEAD 
                                                   Max.-Head-Change                         Max.-Flux-Residual
  Residual-Control   Outer-Iter.   Inner-Iter.     Column Row Layer    Maximum-Head-Change  Column Row Layer    Maximum-Flux-Residual          L2-NORM 
          0                 1           2             2    1     1       0.1583035115E-02       2    1    1         0.8231280368E-01      0.1609388788E+00
          0                 2           2             2    1     1      -0.1539862911E-03       2    1    1        -0.8231289767E-02      0.1604112660E-01
          0                 3           1             2    1     1       0.1048589427E-04       2    1    1         0.5761904258E-03      0.1118346115E-02

    ------------------------------------------------
       NWT REQUIRED            3 OUTER ITERATIONS 
       AND A TOTAL OF          5 INNER ITERATIONS.
    ------------------------------------------------

 NO OUTPUT CONTROL FOR STRESS PERIOD   47   TIME STEP    1
 
 SOLVING FOR HEAD 
                                                   Max.-Head-Change                         Max.-Flux-Residual
  Residual-Control   Outer-Iter.   Inner-Iter.     Column Row Layer    Maximum-Head-Change  Column Row Layer    Maximum-Flux-Residual          L2-NORM 
          0                 1           2             2    1     1       0.1578823580E-02       2    1    1         0.8209306433E-01      0.1586882038E+00
          0                 2           2             2    1     1      -0.1535766227E-03       2    1    1        -0.8209315759E-02      0.1582131990E-01
          0                 3           1             2    1     1       0.1045799783E-04       2    1    1         0.5746522691E-03      0.1103194303E-02

    ------------------------------------------------
       NWT REQUIRED            3 OUTER ITERATIONS 
       AND A TOTAL OF          5 INNER ITERATIONS.
    ------------------------------------------------

 NO OUTPUT CONTROL FOR STRESS PERIOD   47   TIME STEP    2
 
 SOLVING FOR HEAD 
                                                   Max.-Head-Change                         Max.-Flux-Residual
  Residual-Control   Outer-Iter.   Inner-Iter.     Column Row Layer    Maximum-Head-Change  Column Row Layer    Maximum-Flux-Residual          L2-NORM 
          0                 1           2             2    1     1       0.1574638293E-02       2    1    1         0.8187470022E-01      0.1565627938E+00
          0                 2           2             2    1     1      -0.1531695073E-03       2    1    1        -0.8187479264E-02      0.1561246263E-01
          0                 3           1             2    1     1       0.1043027487E-04       2    1    1         0.5731237166E-03      0.1088717923E-02

    ------------------------------------------------
       NWT REQUIRED            3 OUTER ITERATIONS 
       AND A TOTAL OF          5 INNER ITERATIONS.
    ------------------------------------------------

 NO OUTPUT CONTROL FOR STRESS PERIOD   47   TIME STEP    3
 
 SOLVING FOR HEAD 
                                                   Max.-Head-Change                         Max.-Flux-Residual
  Residual-Control   Outer-Iter.   Inner-Iter.     Column Row Layer    Maximum-Head-Change  Column Row Layer    Maximum-Flux-Residual          L2-NORM 
          0                 1           2             2    1     1       0.1570478985E-02       2    1    1         0.8165769711E-01      0.1545538863E+00
          0                 2           2             2    1     1      -0.1527649185E-03       2    1    1        -0.8165778874E-02      0.1541590974E-01
          0                 3           1             2    1     1       0.1040272350E-04       2    1    1         0.5716046756E-03      0.1075399541E-02

    ------------------------------------------------
       NWT REQUIRED            3 OUTER ITERATIONS 
       AND A TOTAL OF          5 INNER ITERATIONS.
    ------------------------------------------------

 NO OUTPUT CONTROL FOR STRESS PERIOD   47   TIME STEP    4
 
 SOLVING FOR HEAD 
                                                   Max.-Head-Change                         Max.-Flux-Residual
  Residual-Control   Outer-Iter.   Inner-Iter.     Column Row Layer    Maximum-Head-Change  Column Row Layer    Maximum-Flux-Residual          L2-NORM 
          0                 1           2             2    1     1       0.1566323135E-02       2    1    1         0.8144088418E-01      0.1526499840E+00
          0                 2           2             2    1     1      -0.1523606669E-03       2    1    1        -0.8144097528E-02      0.1522985268E-01
          0                 3           1             2    1     1       0.1037519532E-04       2    1    1         0.5700869783E-03      0.1063223182E-02

    ------------------------------------------------
       NWT REQUIRED            3 OUTER ITERATIONS 
       AND A TOTAL OF          5 INNER ITERATIONS.
    ------------------------------------------------

 NO OUTPUT CONTROL FOR STRESS PERIOD   47   TIME STEP    5
 
 SOLVING FOR HEAD 
                                                   Max.-Head-Change                         Max.-Flux-Residual
  Residual-Control   Outer-Iter.   Inner-Iter.     Column Row Layer    Maximum-Head-Change  Column Row Layer    Maximum-Flux-Residual          L2-NORM 
          0                 1           2             2    1     1       0.1562215072E-02       2    1    1         0.8122656404E-01      0.1508385017E+00
          0                 2           2             2    1     1      -0.1519610638E-03       2    1    1        -0.8122665449E-02      0.1505093215E-01
          0                 3           1             2    1     1       0.1034798428E-04       2    1    1         0.5685867548E-03      0.1050563364E-02

    ------------------------------------------------
       NWT REQUIRED            3 OUTER ITERATIONS 
       AND A TOTAL OF          5 INNER ITERATIONS.
    ------------------------------------------------

 NO OUTPUT CONTROL FOR STRESS PERIOD   47   TIME STEP    6
 
 SOLVING FOR HEAD 
                                                   Max.-Head-Change                         Max.-Flux-Residual
  Residual-Control   Outer-Iter.   Inner-Iter.     Column Row Layer    Maximum-Head-Change  Column Row Layer    Maximum-Flux-Residual          L2-NORM 
          0                 1           2             2    1     1       0.1557638270E-02       2    1    1         0.8101356488E-01      0.1769901850E+00
          0                 2           2             2    1     1      -0.1515158716E-03       2    1    1        -0.8101365945E-02      0.1758478493E-01
          0                 3           1             2    1     1       0.1031766738E-04       2    1    1         0.5670957568E-03      0.1219806909E-02

    ------------------------------------------------
       NWT REQUIRED            3 OUTER ITERATIONS 
       AND A TOTAL OF          5 INNER ITERATIONS.
    ------------------------------------------------

 NO OUTPUT CONTROL FOR STRESS PERIOD   47   TIME STEP    7
 
 SOLVING FOR HEAD 
                                                   Max.-Head-Change                         Max.-Flux-Residual
  Residual-Control   Outer-Iter.   Inner-Iter.     Column Row Layer    Maximum-Head-Change  Column Row Layer    Maximum-Flux-Residual          L2-NORM 
          0                 1           2             2    1     1       0.1552665973E-02       2    1    1         0.8077509731E-01      0.2016530959E+00
          0                 2           2             2    1     1      -0.1510322065E-03       2    1    1        -0.8077519420E-02      0.1998216486E-01
          0                 3           1             2    1     1       0.1028473169E-04       2    1    1         0.5654265168E-03      0.1381613284E-02

    ------------------------------------------------
       NWT REQUIRED            3 OUTER ITERATIONS 
       AND A TOTAL OF          5 INNER ITERATIONS.
    ------------------------------------------------

 NO OUTPUT CONTROL FOR STRESS PERIOD   47   TIME STEP    8
 
 SOLVING FOR HEAD 
                                                   Max.-Head-Change                         Max.-Flux-Residual
  Residual-Control   Outer-Iter.   Inner-Iter.     Column Row Layer    Maximum-Head-Change  Column Row Layer    Maximum-Flux-Residual          L2-NORM 
          0                 1           2             2    1     1       0.1547747552E-02       2    1    1         0.8051843899E-01      0.1963159081E+00
          0                 2           2             2    1     1      -0.1505537766E-03       2    1    1        -0.8051853493E-02      0.1946671378E-01
          0                 3           1             2    1     1       0.1025215220E-04       2    1    1         0.5636298931E-03      0.1347523401E-02

    ------------------------------------------------
       NWT REQUIRED            3 OUTER ITERATIONS 
       AND A TOTAL OF          5 INNER ITERATIONS.
    ------------------------------------------------

 NO OUTPUT CONTROL FOR STRESS PERIOD   47   TIME STEP    9
 
 SOLVING FOR HEAD 
                                                   Max.-Head-Change                         Max.-Flux-Residual
  Residual-Control   Outer-Iter.   Inner-Iter.     Column Row Layer    Maximum-Head-Change  Column Row Layer    Maximum-Flux-Residual          L2-NORM 
          0                 1           2             2    1     1       0.1542838124E-02       2    1    1         0.8026226641E-01      0.1914554428E+00
          0                 2           2             2    1     1      -0.1500762220E-03       2    1    1        -0.8026236161E-02      0.1899799800E-01
          0                 3           1             2    1     1       0.1021963258E-04       2    1    1         0.5618366703E-03      0.1316545487E-02

    ------------------------------------------------
       NWT REQUIRED            3 OUTER ITERATIONS 
       AND A TOTAL OF          5 INNER ITERATIONS.
    ------------------------------------------------

 NO OUTPUT CONTROL FOR STRESS PERIOD   47   TIME STEP   10
 
 SOLVING FOR HEAD 
                                                   Max.-Head-Change                         Max.-Flux-Residual
  Residual-Control   Outer-Iter.   Inner-Iter.     Column Row Layer    Maximum-Head-Change  Column Row Layer    Maximum-Flux-Residual          L2-NORM 
          0                 1           2             2    1     1       0.1537981938E-02       2    1    1         0.8000887414E-01      0.1870174023E+00
          0                 2           2             2    1     1      -0.1496038465E-03       2    1    1        -0.8000896849E-02      0.1856958427E-01
          0                 3           1             2    1     1       0.1018746584E-04       2    1    1         0.5600629369E-03      0.1287305211E-02

    ------------------------------------------------
       NWT REQUIRED            3 OUTER ITERATIONS 
       AND A TOTAL OF          5 INNER ITERATIONS.
    ------------------------------------------------

 NO OUTPUT CONTROL FOR STRESS PERIOD   47   TIME STEP   11
 
 SOLVING FOR HEAD 
                                                   Max.-Head-Change                         Max.-Flux-Residual
  Residual-Control   Outer-Iter.   Inner-Iter.     Column Row Layer    Maximum-Head-Change  Column Row Layer    Maximum-Flux-Residual          L2-NORM 
          0                 1           2             2    1     1       0.1533134204E-02       2    1    1         0.7975592833E-01      0.1829545551E+00
          0                 2           2             2    1     1      -0.1491322929E-03       2    1    1        -0.7975602196E-02      0.1817744205E-01
          0                 3           1             2    1     1       0.1015535496E-04       2    1    1         0.5582923129E-03      0.1261527697E-02

    ------------------------------------------------
       NWT REQUIRED            3 OUTER ITERATIONS 
       AND A TOTAL OF          5 INNER ITERATIONS.
    ------------------------------------------------

 NO OUTPUT CONTROL FOR STRESS PERIOD   47   TIME STEP   12
 
 SOLVING FOR HEAD 
                                                   Max.-Head-Change                         Max.-Flux-Residual
  Residual-Control   Outer-Iter.   Inner-Iter.     Column Row Layer    Maximum-Head-Change  Column Row Layer    Maximum-Flux-Residual          L2-NORM 
          0                 1           2             2    1     1       0.1528339180E-02       2    1    1         0.7950573490E-01      0.1792175439E+00
          0                 2           2             2    1     1      -0.1486658666E-03       2    1    1        -0.7950582763E-02      0.1781562544E-01
          0                 3           1             2    1     1       0.1012359293E-04       2    1    1         0.5565409542E-03      0.1238030137E-02

    ------------------------------------------------
       NWT REQUIRED            3 OUTER ITERATIONS 
       AND A TOTAL OF          5 INNER ITERATIONS.
    ------------------------------------------------

 NO OUTPUT CONTROL FOR STRESS PERIOD   47   TIME STEP   13
 
 SOLVING FOR HEAD 
                                                   Max.-Head-Change                         Max.-Flux-Residual
  Residual-Control   Outer-Iter.   Inner-Iter.     Column Row Layer    Maximum-Head-Change  Column Row Layer    Maximum-Flux-Residual          L2-NORM 
          0                 1           2             2    1     1       0.1523551876E-02       2    1    1         0.7925596020E-01      0.1757844403E+00
          0                 2           2             2    1     1      -0.1482001912E-03       2    1    1        -0.7925605218E-02      0.1748237339E-01
          0                 3           1             2    1     1       0.1009188226E-04       2    1    1         0.5547925224E-03      0.1215115375E-02

    ------------------------------------------------
       NWT REQUIRED            3 OUTER ITERATIONS 
       AND A TOTAL OF          5 INNER ITERATIONS.
    ------------------------------------------------

 NO OUTPUT CONTROL FOR STRESS PERIOD   47   TIME STEP   14
 
 SOLVING FOR HEAD 
                                                   Max.-Head-Change                         Max.-Flux-Residual
  Residual-Control   Outer-Iter.   Inner-Iter.     Column Row Layer    Maximum-Head-Change  Column Row Layer    Maximum-Flux-Residual          L2-NORM 
          0                 1           2             2    1     1       0.1518794434E-02       2    1    1         0.7900774286E-01      0.1726036506E+00
          0                 2           2             2    1     1      -0.1477374206E-03       2    1    1        -0.7900783401E-02      0.1717543237E-01
          0                 3           1             2    1     1       0.1006036898E-04       2    1    1         0.5530549886E-03      0.1194938718E-02

    ------------------------------------------------
       NWT REQUIRED            3 OUTER ITERATIONS 
       AND A TOTAL OF          5 INNER ITERATIONS.
    ------------------------------------------------

 NO OUTPUT CONTROL FOR STRESS PERIOD   47   TIME STEP   15
 
 SOLVING FOR HEAD 
                                                   Max.-Head-Change                         Max.-Flux-Residual
  Residual-Control   Outer-Iter.   Inner-Iter.     Column Row Layer    Maximum-Head-Change  Column Row Layer    Maximum-Flux-Residual          L2-NORM 
          0                 1           2             2    1     1       0.1514088786E-02       2    1    1         0.7876223120E-01      0.1696629606E+00
          0                 2           2             2    1     1      -0.1472796882E-03       2    1    1        -0.7876232160E-02      0.1689004033E-01
          0                 3           1             2    1     1       0.1002919958E-04       2    1    1         0.5513364068E-03      0.1175502064E-02

    ------------------------------------------------
       NWT REQUIRED            3 OUTER ITERATIONS 
       AND A TOTAL OF          5 INNER ITERATIONS.
    ------------------------------------------------

 NO OUTPUT CONTROL FOR STRESS PERIOD   47   TIME STEP   16
 
 SOLVING FOR HEAD 
                                                   Max.-Head-Change                         Max.-Flux-Residual
  Residual-Control   Outer-Iter.   Inner-Iter.     Column Row Layer    Maximum-Head-Change  Column Row Layer    Maximum-Flux-Residual          L2-NORM 
          0                 1           2             2    1     1       0.1509390048E-02       2    1    1         0.7851709037E-01      0.1669322781E+00
          0                 2           2             2    1     1      -0.1468226284E-03       2    1    1        -0.7851718020E-02      0.1663037562E-01
          0                 3           1             2    1     1       0.9998075392E-05       2    1    1         0.5496204142E-03      0.1157305724E-02

    ------------------------------------------------
       NWT REQUIRED            3 OUTER ITERATIONS 
       AND A TOTAL OF          5 INNER ITERATIONS.
    ------------------------------------------------

 NO OUTPUT CONTROL FOR STRESS PERIOD   47   TIME STEP   17
 
 SOLVING FOR HEAD 
                                                   Max.-Head-Change                         Max.-Flux-Residual
  Residual-Control   Outer-Iter.   Inner-Iter.     Column Row Layer    Maximum-Head-Change  Column Row Layer    Maximum-Flux-Residual          L2-NORM 
          0                 1           2             2    1     1       0.1504720245E-02       2    1    1         0.7827346511E-01      0.1643727648E+00
          0                 2           2             2    1     1      -0.1463683824E-03       2    1    1        -0.7827355395E-02      0.1637479187E-01
          0                 3           1             2    1     1       0.9967143379E-05       2    1    1         0.5479150461E-03      0.1140613566E-02

    ------------------------------------------------
       NWT REQUIRED            3 OUTER ITERATIONS 
       AND A TOTAL OF          5 INNER ITERATIONS.
    ------------------------------------------------

 NO OUTPUT CONTROL FOR STRESS PERIOD   47   TIME STEP   18
 
 SOLVING FOR HEAD 
                                                   Max.-Head-Change                         Max.-Flux-Residual
  Residual-Control   Outer-Iter.   Inner-Iter.     Column Row Layer    Maximum-Head-Change  Column Row Layer    Maximum-Flux-Residual          L2-NORM 
          0                 1           2             2    1     1       0.1500101354E-02       2    1    1         0.7803249758E-01      0.1619897164E+00
          0                 2           2             2    1     1      -0.1459190888E-03       2    1    1        -0.7803258571E-02      0.1614225725E-01
          0                 3           1             2    1     1       0.9936547678E-05       2    1    1         0.5462282502E-03      0.1124585644E-02

    ------------------------------------------------
       NWT REQUIRED            3 OUTER ITERATIONS 
       AND A TOTAL OF          5 INNER ITERATIONS.
    ------------------------------------------------

 NO OUTPUT CONTROL FOR STRESS PERIOD   47   TIME STEP   19
 
 SOLVING FOR HEAD 
                                                   Max.-Head-Change                         Max.-Flux-Residual
  Residual-Control   Outer-Iter.   Inner-Iter.     Column Row Layer    Maximum-Head-Change  Column Row Layer    Maximum-Flux-Residual          L2-NORM 
          0                 1           2             2    1     1       0.1495488631E-02       2    1    1         0.7779185487E-01      0.1597446558E+00
          0                 2           2             2    1     1      -0.1454703957E-03       2    1    1        -0.7779194229E-02      0.1592390191E-01
          0                 3           1             2    1     1       0.9905993396E-05       2    1    1         0.5445437424E-03      0.1109985002E-02

    ------------------------------------------------
       NWT REQUIRED            3 OUTER ITERATIONS 
       AND A TOTAL OF          5 INNER ITERATIONS.
    ------------------------------------------------

 NO OUTPUT CONTROL FOR STRESS PERIOD   47   TIME STEP   20
 
 SOLVING FOR HEAD 
                                                   Max.-Head-Change                         Max.-Flux-Residual
  Residual-Control   Outer-Iter.   Inner-Iter.     Column Row Layer    Maximum-Head-Change  Column Row Layer    Maximum-Flux-Residual          L2-NORM 
          0                 1           2             2    1     1       0.1490903982E-02       2    1    1         0.7755268942E-01      0.1576382388E+00
          0                 2           2             2    1     1      -0.1450244328E-03       2    1    1        -0.7755277592E-02      0.1571800221E-01
          0                 3           1             2    1     1       0.9875624665E-05       2    1    1         0.5428695766E-03      0.1095694484E-02

    ------------------------------------------------
       NWT REQUIRED            3 OUTER ITERATIONS 
       AND A TOTAL OF          5 INNER ITERATIONS.
    ------------------------------------------------

 NO OUTPUT CONTROL FOR STRESS PERIOD   47   TIME STEP   21
 
 SOLVING FOR HEAD 
                                                   Max.-Head-Change                         Max.-Flux-Residual
  Residual-Control   Outer-Iter.   Inner-Iter.     Column Row Layer    Maximum-Head-Change  Column Row Layer    Maximum-Flux-Residual          L2-NORM 
          0                 1           2             2    1     1       0.1486347130E-02       2    1    1         0.7731497962E-01      0.1556527041E+00
          0                 2           2             2    1     1      -0.1445811750E-03       2    1    1        -0.7731506558E-02      0.1552368465E-01
          0                 3           1             2    1     1       0.9845441013E-05       2    1    1         0.5412056214E-03      0.1082838330E-02

    ------------------------------------------------
       NWT REQUIRED            3 OUTER ITERATIONS 
       AND A TOTAL OF          5 INNER ITERATIONS.
    ------------------------------------------------

 NO OUTPUT CONTROL FOR STRESS PERIOD   47   TIME STEP   22
 
 SOLVING FOR HEAD 
                                                   Max.-Head-Change                         Max.-Flux-Residual
  Residual-Control   Outer-Iter.   Inner-Iter.     Column Row Layer    Maximum-Head-Change  Column Row Layer    Maximum-Flux-Residual          L2-NORM 
          0                 1           2             2    1     1       0.1481817932E-02       2    1    1         0.7707871102E-01      0.1537742505E+00
          0                 2           2             2    1     1      -0.1441406060E-03       2    1    1        -0.7707879615E-02      0.1534002716E-01
          0                 3           1             2    1     1       0.9815440072E-05       2    1    1         0.5395517331E-03      0.1070451801E-02

    ------------------------------------------------
       NWT REQUIRED            3 OUTER ITERATIONS 
       AND A TOTAL OF          5 INNER ITERATIONS.
    ------------------------------------------------

 NO OUTPUT CONTROL FOR STRESS PERIOD   47   TIME STEP   23
 
 SOLVING FOR HEAD 
                                                   Max.-Head-Change                         Max.-Flux-Residual
  Residual-Control   Outer-Iter.   Inner-Iter.     Column Row Layer    Maximum-Head-Change  Column Row Layer    Maximum-Flux-Residual          L2-NORM 
          0                 1           2             2    1     1       0.1477316085E-02       2    1    1         0.7684387627E-01      0.1519899304E+00
          0                 2           2             2    1     1      -0.1437026982E-03       2    1    1        -0.7684396079E-02      0.1516488114E-01
          0                 3           1             2    1     1       0.9785619713E-05       2    1    1         0.5379078735E-03      0.1058532121E-02

    ------------------------------------------------
       NWT REQUIRED            3 OUTER ITERATIONS 
       AND A TOTAL OF          5 INNER ITERATIONS.
    ------------------------------------------------

 NO OUTPUT CONTROL FOR STRESS PERIOD   47   TIME STEP   24
 
 SOLVING FOR HEAD 
                                                   Max.-Head-Change                         Max.-Flux-Residual
  Residual-Control   Outer-Iter.   Inner-Iter.     Column Row Layer    Maximum-Head-Change  Column Row Layer    Maximum-Flux-Residual          L2-NORM 
          0                 1           2             2    1     1       0.1472841219E-02       2    1    1         0.7661045965E-01      0.1502970979E+00
          0                 2           2             2    1     1      -0.1432674147E-03       2    1    1        -0.7661054358E-02      0.1499871819E-01
          0                 3           1             2    1     1       0.9755978753E-05       2    1    1         0.5362739581E-03      0.1046922310E-02

    ------------------------------------------------
       NWT REQUIRED            3 OUTER ITERATIONS 
       AND A TOTAL OF          5 INNER ITERATIONS.
    ------------------------------------------------

 NO OUTPUT CONTROL FOR STRESS PERIOD   47   TIME STEP   25
 
 SOLVING FOR HEAD 
                                                   Max.-Head-Change                         Max.-Flux-Residual
  Residual-Control   Outer-Iter.   Inner-Iter.     Column Row Layer    Maximum-Head-Change  Column Row Layer    Maximum-Flux-Residual          L2-NORM 
          0                 1           2             2    1     1       0.1468393201E-02       2    1    1         0.7637844194E-01      0.1486831503E+00
          0                 2           2             2    1     1      -0.1428347427E-03       2    1    1        -0.7637852494E-02      0.1483996499E-01
          0                 3           1             2    1     1       0.9726515534E-05       2    1    1         0.5346498385E-03      0.1036391944E-02

    ------------------------------------------------
       NWT REQUIRED            3 OUTER ITERATIONS 
       AND A TOTAL OF          5 INNER ITERATIONS.
    ------------------------------------------------

 NO OUTPUT CONTROL FOR STRESS PERIOD   47   TIME STEP   26
 
 SOLVING FOR HEAD 
                                                   Max.-Head-Change                         Max.-Flux-Residual
  Residual-Control   Outer-Iter.   Inner-Iter.     Column Row Layer    Maximum-Head-Change  Column Row Layer    Maximum-Flux-Residual          L2-NORM 
          0                 1           2             2    1     1       0.1463971741E-02       2    1    1         0.7614781632E-01      0.1471390534E+00
          0                 2           2             2    1     1      -0.1424046542E-03       2    1    1        -0.7614789883E-02      0.1468844628E-01
          0                 3           1             2    1     1       0.9697227926E-05       2    1    1         0.5330354435E-03      0.1025864914E-02

    ------------------------------------------------
       NWT REQUIRED            3 OUTER ITERATIONS 
       AND A TOTAL OF          5 INNER ITERATIONS.
    ------------------------------------------------

 NO OUTPUT CONTROL FOR STRESS PERIOD   47   TIME STEP   27
 
 SOLVING FOR HEAD 
                                                   Max.-Head-Change                         Max.-Flux-Residual
  Residual-Control   Outer-Iter.   Inner-Iter.     Column Row Layer    Maximum-Head-Change  Column Row Layer    Maximum-Flux-Residual          L2-NORM 
          0                 1           2             2    1     1       0.1459576580E-02       2    1    1         0.7591856767E-01      0.1456627842E+00
          0                 2           2             2    1     1      -0.1419771239E-03       2    1    1        -0.7591864950E-02      0.1454296260E-01
          0                 3           1             2    1     1       0.9668114747E-05       2    1    1         0.5314306895E-03      0.1015901204E-02

    ------------------------------------------------
       NWT REQUIRED            3 OUTER ITERATIONS 
       AND A TOTAL OF          5 INNER ITERATIONS.
    ------------------------------------------------

 NO OUTPUT CONTROL FOR STRESS PERIOD   47   TIME STEP   28
 
 SOLVING FOR HEAD 
                                                   Max.-Head-Change                         Max.-Flux-Residual
  Residual-Control   Outer-Iter.   Inner-Iter.     Column Row Layer    Maximum-Head-Change  Column Row Layer    Maximum-Flux-Residual          L2-NORM 
          0                 1           2             2    1     1       0.1455207495E-02       2    1    1         0.7569068260E-01      0.1442488783E+00
          0                 2           2             2    1     1      -0.1415521299E-03       2    1    1        -0.7569076378E-02      0.1440324665E-01
          0                 3           1             2    1     1       0.9639174339E-05       2    1    1         0.5298354868E-03      0.1006357278E-02

    ------------------------------------------------
       NWT REQUIRED            3 OUTER ITERATIONS 
       AND A TOTAL OF          5 INNER ITERATIONS.
    ------------------------------------------------

 NO OUTPUT CONTROL FOR STRESS PERIOD   47   TIME STEP   29
 
 SOLVING FOR HEAD 
                                                   Max.-Head-Change                         Max.-Flux-Residual
  Residual-Control   Outer-Iter.   Inner-Iter.     Column Row Layer    Maximum-Head-Change  Column Row Layer    Maximum-Flux-Residual          L2-NORM 
          0                 1           2             2    1     1       0.1450634768E-02       2    1    1         0.7546414954E-01      0.1543364319E+00
          0                 2           2             2    1     1      -0.1411073299E-03       2    1    1        -0.7546423160E-02      0.1538554054E-01
          0                 3           1             2    1     1       0.9608884894E-05       2    1    1         0.5282497761E-03      0.1072674192E-02

    ------------------------------------------------
       NWT REQUIRED            3 OUTER ITERATIONS 
       AND A TOTAL OF          5 INNER ITERATIONS.
    ------------------------------------------------

 NO OUTPUT CONTROL FOR STRESS PERIOD   47   TIME STEP   30



 STREAM LISTING     PERIOD     47   STEP       30

 LAYER ROW COL. STREAM  RCH.  FLOW INTO     FLOW TO   FLOW OUT OF   OVRLND.     DIRECT     STREAM       STREAM     STREAM     STREAM   STREAMBED  STREAMBED
                SEG.NO.  NO.  STRM. RCH.    AQUIFER    STRM. RCH.    RUNOFF     PRECIP       ET          HEAD       DEPTH      WIDTH   CONDCTNC.   GRADIENT

   1    1    1     1     1    1.5942E+01  1.9373E-01   1.5748E+01  0.000E+00  0.000E+00  0.000E+00  1.09408E+03  1.028E+00  1.069E+01  4.809E-02  1.343E+00
   1    2    2     1     2    1.5748E+01  2.9868E-01   1.5450E+01  0.000E+00  0.000E+00  0.000E+00  1.08908E+03  1.024E+00  1.060E+01  7.423E-02  1.341E+00
   1    3    3     1     3    1.5450E+01  2.5341E-01   1.5196E+01  0.000E+00  0.000E+00  0.000E+00  1.08344E+03  1.018E+00  1.051E+01  6.306E-02  1.339E+00
   1    3    4     1     4    1.5196E+01  2.3228E-01   1.4964E+01  0.000E+00  0.000E+00  0.000E+00  1.07842E+03  1.014E+00  1.043E+01  5.787E-02  1.338E+00
   1    4    5     2     1    1.2964E+01  2.9708E-01   1.2667E+01  0.000E+00  0.000E+00  0.000E+00  1.07274E+03  8.087E-01  1.200E+01  7.800E-02  1.270E+00
   1    5    6     2     2    1.2667E+01  2.2792E-01   1.2439E+01  0.000E+00  0.000E+00  0.000E+00  1.06731E+03  7.987E-01  1.200E+01  6.000E-02  1.266E+00
   1    6    6     2     3    1.2439E+01  2.2740E-01   1.2211E+01  0.000E+00  0.000E+00  0.000E+00  1.06258E+03  7.900E-01  1.200E+01  6.000E-02  1.263E+00
   1    7    6     2     4    1.2211E+01  2.2687E-01   1.1985E+01  0.000E+00  0.000E+00  0.000E+00  1.05786E+03  7.812E-01  1.200E+01  6.000E-02  1.260E+00
   1    8    6     2     5    1.1985E+01  2.2634E-01   1.1758E+01  0.000E+00  0.000E+00  0.000E+00  1.05313E+03  7.724E-01  1.200E+01  6.000E-02  1.257E+00
   1    3    5     3     1    2.0000E+00  2.8252E-01   1.7175E+00  0.000E+00  0.000E+00  0.000E+00  1.07555E+03  1.909E+00  9.636E+00  7.227E-02  1.955E+00
   1    3    6     3     2    1.7175E+00  2.4905E-01   1.4684E+00  0.000E+00  0.000E+00  0.000E+00  1.07264E+03  1.727E+00  8.909E+00  6.682E-02  1.864E+00
   1    3    7     3     3    1.4684E+00  1.9718E-01   1.2712E+00  0.000E+00  0.000E+00  0.000E+00  1.06987E+03  1.555E+00  8.218E+00  5.547E-02  1.777E+00
   1    4    8     3     4    1.2712E+00  2.2567E-01   1.0456E+00  0.000E+00  0.000E+00  0.000E+00  1.06682E+03  1.364E+00  7.455E+00  6.709E-02  1.682E+00
   1    5    8     3     5    1.0456E+00  1.5790E-01   8.8768E-01  0.000E+00  0.000E+00  0.000E+00  1.06362E+03  1.164E+00  6.655E+00  4.991E-02  1.582E+00
   1    6    8     3     6    8.8768E-01  5.5980E-02   8.3170E-01  0.000E+00  0.000E+00  0.000E+00  1.06158E+03  1.036E+00  6.145E+00  1.844E-02  1.518E+00
   1    5   10     4     1    1.0000E+01  9.0919E-02   9.9091E+00  0.000E+00  0.000E+00  0.000E+00  1.07836E+03  6.368E-01  1.000E+01  2.500E-02  1.212E+00
   1    5    9     4     2    9.9091E+00  1.8158E-01   9.7275E+00  0.000E+00  0.000E+00  0.000E+00  1.07154E+03  6.315E-01  1.000E+01  5.000E-02  1.211E+00
   1    6    8     4     3    9.7275E+00  1.2689E-01   9.6006E+00  0.000E+00  0.000E+00  0.000E+00  1.06381E+03  6.256E-01  1.000E+01  3.500E-02  1.209E+00
   1    6    8     5     1    1.0432E+01  2.2686E-01   1.0205E+01  0.000E+00  0.000E+00  0.000E+00  1.05868E+03  6.790E-01  1.542E+01  6.166E-02  1.226E+00
   1    7    7     5     2    1.0205E+01  2.7894E-01   9.9265E+00  0.000E+00  0.000E+00  0.000E+00  1.05417E+03  6.732E-01  1.519E+01  7.594E-02  1.224E+00
   1    8    7     5     3    9.9265E+00  1.9221E-01   9.7343E+00  0.000E+00  0.000E+00  0.000E+00  1.04992E+03  6.676E-01  1.497E+01  5.241E-02  1.223E+00
   1    8    6     5     4    9.7343E+00  1.3577E-01   9.5985E+00  0.000E+00  0.000E+00  0.000E+00  1.04691E+03  6.637E-01  1.482E+01  3.706E-02  1.221E+00
   1    9    6     6     1    2.1357E+01  2.4643E-01   2.1110E+01  0.000E+00  0.000E+00  0.000E+00  1.04383E+03  1.107E+00  1.200E+01  6.000E-02  1.369E+00
   1   10    7     6     2    2.1110E+01  2.4596E-01   2.0864E+01  0.000E+00  0.000E+00  0.000E+00  1.03928E+03  1.099E+00  1.200E+01  6.000E-02  1.366E+00
   1   11    7     6     3    2.0864E+01  2.4550E-01   2.0619E+01  0.000E+00  0.000E+00  0.000E+00  1.03473E+03  1.092E+00  1.200E+01  6.000E-02  1.364E+00
   1   12    7     6     4    2.0619E+01  2.4503E-01   2.0374E+01  0.000E+00  0.000E+00  0.000E+00  1.03017E+03  1.084E+00  1.200E+01  6.000E-02  1.361E+00
   1   13    7     6     5    2.0374E+01 -4.6058E-02   2.0420E+01  0.000E+00  0.000E+00  0.000E+00  1.02699E+03  1.081E+00  1.200E+01  2.400E-01 -6.397E-02
   1   14    9     7     1    1.5000E+02  1.3316E+00   1.4867E+02  0.000E+00  0.000E+00  0.000E+00  1.03987E+03  2.288E+00  5.529E+01  5.593E-01  7.936E-01
   1   13    8     7     2    1.4867E+02  1.8027E+00   1.4687E+02  0.000E+00  0.000E+00  0.000E+00  1.03478E+03  2.279E+00  5.526E+01  6.148E-01  9.774E-01
   1   13    7     7     3    1.4687E+02  1.4009E+00   1.4546E+02  0.000E+00  0.000E+00  0.000E+00  1.02969E+03  2.271E+00  5.522E+01  5.585E-01  8.362E-01
   1   13    6     8     1    1.6588E+02  8.2466E-01   1.6506E+02  0.000E+00  0.000E+00  0.000E+00  1.02480E+03  2.922E+00  4.238E+01  4.318E-01  6.366E-01
   1   13    5     8     2    1.6506E+02  8.6445E-02   1.6497E+02  0.000E+00  0.000E+00  0.000E+00  1.01854E+03  2.919E+00  4.233E+01  4.314E-01  6.680E-02
   1   13    4     8     3    1.6497E+02 -2.7459E+00   1.6772E+02  0.000E+00  0.000E+00  0.000E+00  1.01230E+03  2.928E+00  4.246E+01  4.327E+00 -2.115E-01
   1   13    3     8     4    1.6772E+02 -3.7966E+00   1.7152E+02  0.000E+00  0.000E+00  0.000E+00  1.00607E+03  2.950E+00  4.277E+01  4.358E+00 -2.904E-01
   1   13    2     8     5    1.7152E+02 -2.6256E+00   1.7414E+02  0.000E+00  0.000E+00  0.000E+00  9.99846E+02  2.971E+00  4.307E+01  4.389E+00 -1.994E-01
   1   13    1     8     6    1.7414E+02 -2.0074E+00   1.7615E+02  0.000E+00  0.000E+00  0.000E+00  9.94860E+02  2.985E+00  4.329E+01  2.647E+00 -2.528E-01
   1    8    6     9     1    0.0000E+00  0.0000E+00   0.0000E+00  0.000E+00  0.000E+00  0.000E+00  1.07875E+03  0.000E+00  4.000E+00  0.000E+00  1.000E+00
   1    8    5     9     2    0.0000E+00  0.0000E+00   0.0000E+00  0.000E+00  0.000E+00  0.000E+00  1.07825E+03  0.000E+00  4.000E+00  0.000E+00  1.000E+00





UNSATURATED ZONE PACKAGE VOLUMETRIC BUDGET FOR  TIME STEP    30 STRESS PERIOD   47
  ------------------------------------------------------------------------------



     CUMULATIVE VOLUMES      L**3       RATES FOR THIS TIME STEP      L**3/T
     ------------------                 ------------------------

           IN:                                      IN:
           ---                                      ---
        INFILTRATION =   534141373.3333          INFILTRATION =           4.4075

          OUT:                                     OUT:
          ----                                     ----
              UZF ET =   404211005.0515                UZF ET =           3.7800
        UZF RECHARGE =     2053800.1856          UZF RECHARGE =       0.0000E+00

            IN - OUT =   127876568.0962              IN - OUT =           0.6275

          STORAGE:                                 STORAGE:
          --------                                 --------
      STORAGE CHANGE =   127878778.9566        STORAGE CHANGE =           0.6275

 PERCENT DISCREPANCY IS DIFFERENCE BETWEEN IN-OUT MINUS CHANGE IN STORAGE
 DIVIDED BY THE AVERAGE OF IN AND OUT TIMES 100

 PERCENT DISCREPANCY =          -0.00     PERCENT DISCREPANCY =           0.00






1
  VOLUMETRIC BUDGET FOR ENTIRE MODEL AT END OF TIME STEP   30, STRESS PERIOD  47
  ------------------------------------------------------------------------------

     CUMULATIVE VOLUMES      L**3       RATES FOR THIS TIME STEP      L**3/T
     ------------------                 ------------------------

           IN:                                      IN:
           ---                                      ---
               AG WELLS  =           0.0000                 AG WELLS  =           0.0000
        DIVERSION SEGMEN =      848802.5000          DIVERSION SEGMEN =           0.0000
    TS         GW IRRIGA =           0.0000      TS         GW IRRIGA =           0.0000
    TION         SW IRRI =           0.0000      TION         SW IRRI =           0.0000
    GATION      SYSTEM L =           0.0000      GATION      SYSTEM L =           0.0000
    OSSES GW      SYSTEM =           0.1856      OSSES GW      SYSTEM =           0.0000

                TOTAL IN =      848802.6875                  TOTAL IN =           0.0000

          OUT:                                     OUT:
          ----                                     ----
               AG WELLS  =           0.0000                 AG WELLS  =           0.0000
        DIVERSION SEGMEN =           0.0000          DIVERSION SEGMEN =           0.0000
    TS         GW IRRIGA =           0.0000      TS         GW IRRIGA =           0.0000
    TION         SW IRRI =      848819.6875      TION         SW IRRI =           0.0000
    GATION      SYSTEM L =           0.0000      GATION      SYSTEM L =           0.0000
    OSSES GW      SYSTEM =           0.0000      OSSES GW      SYSTEM =           0.0000

               TOTAL OUT =      848819.6875                 TOTAL OUT =           0.0000

                IN - OUT =         -17.0000                  IN - OUT =           0.0000

     PERCENT DISCREPANCY =          -0.00         PERCENT DISCREPANCY =           0.00



1
  VOLUMETRIC BUDGET FOR ENTIRE MODEL AT END OF TIME STEP   30, STRESS PERIOD  47
  ------------------------------------------------------------------------------

     CUMULATIVE VOLUMES      L**3       RATES FOR THIS TIME STEP      L**3/T
     ------------------                 ------------------------

           IN:                                      IN:
           ---                                      ---
             STORAGE     =    59437996.0000               STORAGE     =           0.5882
       CONSTANT HEAD     =           0.0000         CONSTANT HEAD     =           0.0000
     HEAD DEP BOUNDS     =    34576644.0000       HEAD DEP BOUNDS     =           0.2855
      STREAM LEAKAGE     =  1442729472.0000        STREAM LEAKAGE     =          11.0145
        UZF RECHARGE     =     2053800.1250          UZF RECHARGE     =           0.0000
               GW ET     =           0.0000                 GW ET     =           0.0000
     SURFACE LEAKAGE     =           0.0000       SURFACE LEAKAGE     =           0.0000
           AG WELLS      =           0.0000             AG WELLS      =           0.0000

                TOTAL IN =  1538797824.0000                  TOTAL IN =          11.8882

          OUT:                                     OUT:
          ----                                     ----
             STORAGE     =   177885008.0000               STORAGE     =           0.3771
       CONSTANT HEAD     =           0.0000         CONSTANT HEAD     =           0.0000
     HEAD DEP BOUNDS     =    35402760.0000       HEAD DEP BOUNDS     =           0.2895
      STREAM LEAKAGE     =  1305726336.0000        STREAM LEAKAGE     =          11.2215
        UZF RECHARGE     =           0.0000          UZF RECHARGE     =           0.0000
               GW ET     =    19807256.0000                 GW ET     =           0.0000
     SURFACE LEAKAGE     =           0.0000       SURFACE LEAKAGE     =           0.0000
           AG WELLS      =           0.0000             AG WELLS      =           0.0000

               TOTAL OUT =  1538821376.0000                 TOTAL OUT =          11.8881

                IN - OUT =      -23552.0000                  IN - OUT =       6.2943E-05

     PERCENT DISCREPANCY =          -0.00         PERCENT DISCREPANCY =           0.00






         TIME SUMMARY AT END OF TIME STEP   30 IN STRESS PERIOD   47
                    SECONDS     MINUTES      HOURS       DAYS        YEARS
                    -----------------------------------------------------------
   TIME STEP LENGTH  87667.      1461.1      24.352      1.0147     2.77799E-03
 STRESS PERIOD TIME 2.63000E+06  43833.      730.56      30.440     8.33397E-02
         TOTAL TIME 1.21065E+08 2.01775E+06  33629.      1401.2      3.8363    
1
1
                            STRESS PERIOD NO.   48, LENGTH =   2630000.    
                            -----------------------------------------------

                              NUMBER OF TIME STEPS =    30

                               MULTIPLIER FOR DELT =     1.000

                            INITIAL TIME STEP SIZE =   87666.66    

 REUSING NON-PARAMETER GHB CELLS FROM LAST STRESS PERIOD

      2 GHB CELLS

 REUSING STREAM SEGMENT DATA FROM LAST STRESS PERIOD



            AREAL INFILTRATION RATE
 READING ON UNIT   19 WITH FORMAT: (10F4.0)            

            1           2           3           4           5           6           7           8           9          10
 ........................................................................................................................
   1   1.2000E-09   0.000       0.000       0.000       0.000       0.000       0.000       0.000       0.000       0.000    
   2   2.1000E-09  2.0000E-09  8.0000E-10  8.5000E-09   0.000       0.000       0.000       0.000       0.000       0.000    
   3   5.0000E-10  1.1000E-09  8.8000E-09  5.5000E-09   0.000       0.000       0.000       0.000       0.000       0.000    
   4   8.5000E-09  1.1000E-09  1.1000E-09  1.1000E-09  2.0000E-09   0.000       0.000       0.000       0.000       0.000    
   5   8.5000E-09  1.1000E-09  1.1000E-09  1.1000E-09  1.1000E-09   0.000       0.000       0.000       0.000       0.000    
   6   8.5000E-09  5.2000E-09  2.1000E-09  1.1000E-09  1.5000E-09   0.000       0.000       0.000       0.000       0.000    
   7   8.5000E-09  5.2000E-09  2.1000E-09  1.2000E-09  2.0000E-09   0.000       0.000       0.000       0.000       0.000    
   8   5.0000E-10  5.2000E-09  2.1000E-09  1.2000E-09  5.0000E-09   0.000       0.000       0.000       0.000       0.000    
   9   5.0000E-10  5.2000E-09  2.1000E-09  1.2000E-09  5.0000E-09   0.000       0.000       0.000       0.000       0.000    
  10   5.0000E-10  5.2000E-09  2.1000E-09  1.2000E-09  5.8000E-09   0.000       0.000       0.000       0.000       0.000    
  11   1.0000E-10  1.1000E-09  1.1000E-09  1.2000E-09  5.0000E-09   0.000       0.000       0.000       0.000       0.000    
  12   1.1000E-09  1.1000E-09  1.1000E-09  1.1000E-09  2.0000E-09   0.000       0.000       0.000       0.000       0.000    
  13   1.1000E-09  2.2000E-09  2.2000E-09  2.1000E-09  1.0000E-09   0.000       0.000       0.000       0.000       0.000    
  14   2.0000E-10  5.5000E-09  5.5000E-09  5.2000E-09  1.0000E-09   0.000       0.000       0.000       0.000       0.000    
  15    0.000      8.8000E-09  8.8000E-09   0.000       0.000       0.000       0.000       0.000       0.000       0.000    

                  ET RATE =  5.000000E-10

 USING ET EXTINCTION DEPTH FROM PREVIOUS STRESS PERIOD. CURRENT PERIOD IS:      48

 USING EXTINCTION WATER CONTENT FROM PREVIOUS STRESS PERIOD. CURRENT PERIOD IS:      48

 USING AIR ENTRY PRESSURE FROM PREVIOUS STRESS PERIOD. CURRENT PERIOD IS:      48

 USING ROOT PRESSURE HEAD FROM PREVIOUS STRESS PERIOD. CURRENT PERIOD IS:      48

 USING ROOT ACTIVITY FROM PREVIOUS STRESS PERIOD. CURRENT PERIOD IS:      48

 PROCESSING AG STRESS PERIOD DATA

 READING AG STRESS PERIOD DATA

 READING IRRIGATION SEGMENT

 READING IRRIGATION WELL

 READING SUPPLEMENTAL WELL

 END PROCESSING AG STRESS PERIOD DATA OPTIONS
 
 SOLVING FOR HEAD 
                                                   Max.-Head-Change                         Max.-Flux-Residual
  Residual-Control   Outer-Iter.   Inner-Iter.     Column Row Layer    Maximum-Head-Change  Column Row Layer    Maximum-Flux-Residual          L2-NORM 
          0                 1           2             1    2     1       0.1446732020E-02       2    1    1         0.7522589627E-01      0.1568456386E+00
          0                 2           2             1    2     1      -0.1407276700E-03       2    1    1        -0.7522597831E-02      0.1562955801E-01
          0                 3           1             1    2     1       0.9583031416E-05       2    1    1         0.5265820009E-03      0.1087352086E-02

    ------------------------------------------------
       NWT REQUIRED            3 OUTER ITERATIONS 
       AND A TOTAL OF          5 INNER ITERATIONS.
    ------------------------------------------------

 NO OUTPUT CONTROL FOR STRESS PERIOD   48   TIME STEP    1
 
 SOLVING FOR HEAD 
                                                   Max.-Head-Change                         Max.-Flux-Residual
  Residual-Control   Outer-Iter.   Inner-Iter.     Column Row Layer    Maximum-Head-Change  Column Row Layer    Maximum-Flux-Residual          L2-NORM 
          0                 1           2             1    2     1       0.1443695774E-02       2    1    1         0.7498607955E-01      0.1547512136E+00
          0                 2           2             1    2     1      -0.1404323254E-03       2    1    1        -0.7498616077E-02      0.1542604377E-01
          0                 3           1             1    2     1       0.9562920105E-05       2    1    1         0.5249032933E-03      0.1075350068E-02

    ------------------------------------------------
       NWT REQUIRED            3 OUTER ITERATIONS 
       AND A TOTAL OF          5 INNER ITERATIONS.
    ------------------------------------------------

 NO OUTPUT CONTROL FOR STRESS PERIOD   48   TIME STEP    2
 
 SOLVING FOR HEAD 
                                                   Max.-Head-Change                         Max.-Flux-Residual
  Residual-Control   Outer-Iter.   Inner-Iter.     Column Row Layer    Maximum-Head-Change  Column Row Layer    Maximum-Flux-Residual          L2-NORM 
          0                 1           2             1    2     1       0.1440631457E-02       2    1    1         0.7474769949E-01      0.1527842484E+00
          0                 2           2             1    2     1      -0.1401342503E-03       2    1    1        -0.7474778009E-02      0.1523438623E-01
          0                 3           1             1    2     1       0.9542622295E-05       2    1    1         0.5232346097E-03      0.1062597319E-02

    ------------------------------------------------
       NWT REQUIRED            3 OUTER ITERATIONS 
       AND A TOTAL OF          5 INNER ITERATIONS.
    ------------------------------------------------

 NO OUTPUT CONTROL FOR STRESS PERIOD   48   TIME STEP    3
 
 SOLVING FOR HEAD 
                                                   Max.-Head-Change                         Max.-Flux-Residual
  Residual-Control   Outer-Iter.   Inner-Iter.     Column Row Layer    Maximum-Head-Change  Column Row Layer    Maximum-Flux-Residual          L2-NORM 
          0                 1           2             1    2     1       0.1437627461E-02       2    1    1         0.7451074058E-01      0.1509462417E+00
          0                 2           2             1    2     1      -0.1398420427E-03       2    1    1        -0.7451082067E-02      0.1505488452E-01
          0                 3           1             1    2     1       0.9522723753E-05       2    1    1         0.5215758910E-03      0.1050536550E-02

    ------------------------------------------------
       NWT REQUIRED            3 OUTER ITERATIONS 
       AND A TOTAL OF          5 INNER ITERATIONS.
    ------------------------------------------------

 NO OUTPUT CONTROL FOR STRESS PERIOD   48   TIME STEP    4
 
 SOLVING FOR HEAD 
                                                   Max.-Head-Change                         Max.-Flux-Residual
  Residual-Control   Outer-Iter.   Inner-Iter.     Column Row Layer    Maximum-Head-Change  Column Row Layer    Maximum-Flux-Residual          L2-NORM 
          0                 1           2             1    2     1       0.1434639389E-02       2    1    1         0.7427403250E-01      0.1492111843E+00
          0                 2           2             1    2     1      -0.1395513843E-03       2    1    1        -0.7427411171E-02      0.1488512882E-01
          0                 3           1             1    2     1       0.9502931240E-05       2    1    1         0.5199189401E-03      0.1038464938E-02

    ------------------------------------------------
       NWT REQUIRED            3 OUTER ITERATIONS 
       AND A TOTAL OF          5 INNER ITERATIONS.
    ------------------------------------------------

 NO OUTPUT CONTROL FOR STRESS PERIOD   48   TIME STEP    5
 
 SOLVING FOR HEAD 
                                                   Max.-Head-Change                         Max.-Flux-Residual
  Residual-Control   Outer-Iter.   Inner-Iter.     Column Row Layer    Maximum-Head-Change  Column Row Layer    Maximum-Flux-Residual          L2-NORM 
          0                 1           2             1    2     1       0.1431622787E-02       2    1    1         0.7403988633E-01      0.1475698683E+00
          0                 2           2             1    2     1      -0.1392579505E-03       2    1    1        -0.7403996489E-02      0.1472433044E-01
          0                 3           1             1    2     1       0.9482949626E-05       2    1    1         0.5182799063E-03      0.1027646860E-02

    ------------------------------------------------
       NWT REQUIRED            3 OUTER ITERATIONS 
       AND A TOTAL OF          5 INNER ITERATIONS.
    ------------------------------------------------

 NO OUTPUT CONTROL FOR STRESS PERIOD   48   TIME STEP    6
 
 SOLVING FOR HEAD 
                                                   Max.-Head-Change                         Max.-Flux-Residual
  Residual-Control   Outer-Iter.   Inner-Iter.     Column Row Layer    Maximum-Head-Change  Column Row Layer    Maximum-Flux-Residual          L2-NORM 
          0                 1           2             1    2     1       0.1428666092E-02       2    1    1         0.7380712218E-01      0.1460116614E+00
          0                 2           2             1    2     1      -0.1389703442E-03       2    1    1        -0.7380720014E-02      0.1457201717E-01
          0                 3           1             1    2     1       0.9463364203E-05       2    1    1         0.5166505521E-03      0.1017511853E-02

    ------------------------------------------------
       NWT REQUIRED            3 OUTER ITERATIONS 
       AND A TOTAL OF          5 INNER ITERATIONS.
    ------------------------------------------------

 NO OUTPUT CONTROL FOR STRESS PERIOD   48   TIME STEP    7
 
 SOLVING FOR HEAD 
                                                   Max.-Head-Change                         Max.-Flux-Residual
  Residual-Control   Outer-Iter.   Inner-Iter.     Column Row Layer    Maximum-Head-Change  Column Row Layer    Maximum-Flux-Residual          L2-NORM 
          0                 1           2             1    2     1       0.1425724790E-02       2    1    1         0.7357457229E-01      0.1445353395E+00
          0                 2           2             1    2     1      -0.1386842351E-03       2    1    1        -0.7357464967E-02      0.1442709282E-01
          0                 3           1             1    2     1       0.9443881496E-05       2    1    1         0.5150227008E-03      0.1007669733E-02

    ------------------------------------------------
       NWT REQUIRED            3 OUTER ITERATIONS 
       AND A TOTAL OF          5 INNER ITERATIONS.
    ------------------------------------------------

 NO OUTPUT CONTROL FOR STRESS PERIOD   48   TIME STEP    8
 
 SOLVING FOR HEAD 
                                                   Max.-Head-Change                         Max.-Flux-Residual
  Residual-Control   Outer-Iter.   Inner-Iter.     Column Row Layer    Maximum-Head-Change  Column Row Layer    Maximum-Flux-Residual          L2-NORM 
          0                 1           2             1    2     1       0.1422754568E-02       2    1    1         0.7334453946E-01      0.1431242208E+00
          0                 2           2             1    2     1      -0.1383953128E-03       2    1    1        -0.7334461606E-02      0.1428830216E-01
          0                 3           1             1    2     1       0.9424207083E-05       2    1    1         0.5134124621E-03      0.9979014544E-03

    ------------------------------------------------
       NWT REQUIRED            3 OUTER ITERATIONS 
       AND A TOTAL OF          5 INNER ITERATIONS.
    ------------------------------------------------

 NO OUTPUT CONTROL FOR STRESS PERIOD   48   TIME STEP    9
 
 SOLVING FOR HEAD 
                                                   Max.-Head-Change                         Max.-Flux-Residual
  Residual-Control   Outer-Iter.   Inner-Iter.     Column Row Layer    Maximum-Head-Change  Column Row Layer    Maximum-Flux-Residual          L2-NORM 
          0                 1           2             1    2     1       0.1419843828E-02       2    1    1         0.7311469649E-01      0.1417722954E+00
          0                 2           2             1    2     1      -0.1381121767E-03       2    1    1        -0.7311477257E-02      0.1415529370E-01
          0                 3           1             1    2     1       0.9404926495E-05       2    1    1         0.5118035659E-03      0.9889257358E-03

    ------------------------------------------------
       NWT REQUIRED            3 OUTER ITERATIONS 
       AND A TOTAL OF          5 INNER ITERATIONS.
    ------------------------------------------------

 NO OUTPUT CONTROL FOR STRESS PERIOD   48   TIME STEP   10
 
 SOLVING FOR HEAD 
                                                   Max.-Head-Change                         Max.-Flux-Residual
  Residual-Control   Outer-Iter.   Inner-Iter.     Column Row Layer    Maximum-Head-Change  Column Row Layer    Maximum-Flux-Residual          L2-NORM 
          0                 1           2             1    2     1       0.1416948108E-02       2    1    1         0.7288735044E-01      0.1404818641E+00
          0                 2           2             1    2     1      -0.1378305016E-03       2    1    1        -0.7288742596E-02      0.1402820335E-01
          0                 3           1             1    2     1       0.9385745547E-05       2    1    1         0.5102121378E-03      0.9799791603E-03

    ------------------------------------------------
       NWT REQUIRED            3 OUTER ITERATIONS 
       AND A TOTAL OF          5 INNER ITERATIONS.
    ------------------------------------------------

 NO OUTPUT CONTROL FOR STRESS PERIOD   48   TIME STEP   11
 
 SOLVING FOR HEAD 
                                                   Max.-Head-Change                         Max.-Flux-Residual
  Residual-Control   Outer-Iter.   Inner-Iter.     Column Row Layer    Maximum-Head-Change  Column Row Layer    Maximum-Flux-Residual          L2-NORM 
          0                 1           2             1    2     1       0.1414022936E-02       2    1    1         0.7266016888E-01      0.1392424105E+00
          0                 2           2             1    2     1      -0.1375459617E-03       2    1    1        -0.7266024388E-02      0.1390632960E-01
          0                 3           1             1    2     1       0.9366369579E-05       2    1    1         0.5086218496E-03      0.9716142050E-03

    ------------------------------------------------
       NWT REQUIRED            3 OUTER ITERATIONS 
       AND A TOTAL OF          5 INNER ITERATIONS.
    ------------------------------------------------

 NO OUTPUT CONTROL FOR STRESS PERIOD   48   TIME STEP   12
 
 SOLVING FOR HEAD 
                                                   Max.-Head-Change                         Max.-Flux-Residual
  Residual-Control   Outer-Iter.   Inner-Iter.     Column Row Layer    Maximum-Head-Change  Column Row Layer    Maximum-Flux-Residual          L2-NORM 
          0                 1           2             1    2     1       0.1411156821E-02       2    1    1         0.7243429392E-01      0.1380514337E+00
          0                 2           2             1    2     1      -0.1372671662E-03       2    1    1        -0.7243436829E-02      0.1378844593E-01
          0                 3           1             1    2     1       0.9347384359E-05       2    1    1         0.5070407125E-03      0.9638033962E-03

    ------------------------------------------------
       NWT REQUIRED            3 OUTER ITERATIONS 
       AND A TOTAL OF          5 INNER ITERATIONS.
    ------------------------------------------------

 NO OUTPUT CONTROL FOR STRESS PERIOD   48   TIME STEP   13
 
 SOLVING FOR HEAD 
                                                   Max.-Head-Change                         Max.-Flux-Residual
  Residual-Control   Outer-Iter.   Inner-Iter.     Column Row Layer    Maximum-Head-Change  Column Row Layer    Maximum-Flux-Residual          L2-NORM 
          0                 1           2             1    2     1       0.1408261059E-02       2    1    1         0.7221087891E-01      0.1368994684E+00
          0                 2           2             1    2     1      -0.1369854869E-03       2    1    1        -0.7221095275E-02      0.1367484657E-01
          0                 3           1             1    2     1       0.9328203174E-05       2    1    1         0.5054768347E-03      0.9559847962E-03

    ------------------------------------------------
       NWT REQUIRED            3 OUTER ITERATIONS 
       AND A TOTAL OF          5 INNER ITERATIONS.
    ------------------------------------------------

 NO OUTPUT CONTROL FOR STRESS PERIOD   48   TIME STEP   14
 
 SOLVING FOR HEAD 
                                                   Max.-Head-Change                         Max.-Flux-Residual
  Residual-Control   Outer-Iter.   Inner-Iter.     Column Row Layer    Maximum-Head-Change  Column Row Layer    Maximum-Flux-Residual          L2-NORM 
          0                 1           2             1    2     1       0.1405424147E-02       2    1    1         0.7198759164E-01      0.1357891403E+00
          0                 2           2             1    2     1      -0.1367095322E-03       2    1    1        -0.7198766488E-02      0.1356505310E-01
          0                 3           1             1    2     1       0.9309411790E-05       2    1    1         0.5039138042E-03      0.9482085816E-03

    ------------------------------------------------
       NWT REQUIRED            3 OUTER ITERATIONS 
       AND A TOTAL OF          5 INNER ITERATIONS.
    ------------------------------------------------

 NO OUTPUT CONTROL FOR STRESS PERIOD   48   TIME STEP   15
 
 SOLVING FOR HEAD 
                                                   Max.-Head-Change                         Max.-Flux-Residual
  Residual-Control   Outer-Iter.   Inner-Iter.     Column Row Layer    Maximum-Head-Change  Column Row Layer    Maximum-Flux-Residual          L2-NORM 
          0                 1           2             1    2     1       0.1402557309E-02       2    1    1         0.7176558709E-01      0.1347169226E+00
          0                 2           2             1    2     1      -0.1364306664E-03       2    1    1        -0.7176565959E-02      0.1345874519E-01
          0                 3           1             1    2     1       0.9290421836E-05       2    1    1         0.5023597620E-03      0.9409467954E-03

    ------------------------------------------------
       NWT REQUIRED            3 OUTER ITERATIONS 
       AND A TOTAL OF          5 INNER ITERATIONS.
    ------------------------------------------------

 NO OUTPUT CONTROL FOR STRESS PERIOD   48   TIME STEP   16
 
 SOLVING FOR HEAD 
                                                   Max.-Head-Change                         Max.-Flux-Residual
  Residual-Control   Outer-Iter.   Inner-Iter.     Column Row Layer    Maximum-Head-Change  Column Row Layer    Maximum-Flux-Residual          L2-NORM 
          0                 1           2             1    2     1       0.1399748987E-02       2    1    1         0.7154600683E-01      0.1336777873E+00
          0                 2           2             1    2     1      -0.1361574930E-03       2    1    1        -0.7154607878E-02      0.1335573034E-01
          0                 3           1             1    2     1       0.9271819791E-05       2    1    1         0.5008226983E-03      0.9338055547E-03

    ------------------------------------------------
       NWT REQUIRED            3 OUTER ITERATIONS 
       AND A TOTAL OF          5 INNER ITERATIONS.
    ------------------------------------------------

 NO OUTPUT CONTROL FOR STRESS PERIOD   48   TIME STEP   17
 
 SOLVING FOR HEAD 
                                                   Max.-Head-Change                         Max.-Flux-Residual
  Residual-Control   Outer-Iter.   Inner-Iter.     Column Row Layer    Maximum-Head-Change  Column Row Layer    Maximum-Flux-Residual          L2-NORM 
          0                 1           2             1    2     1       0.1396910468E-02       2    1    1         0.7132651887E-01      0.1326706561E+00
          0                 2           2             1    2     1      -0.1358813819E-03       2    1    1        -0.7132659046E-02      0.1325605206E-01
          0                 3           1             1    2     1       0.9253017519E-05       2    1    1         0.4992862931E-03      0.9269680371E-03

    ------------------------------------------------
       NWT REQUIRED            3 OUTER ITERATIONS 
       AND A TOTAL OF          5 INNER ITERATIONS.
    ------------------------------------------------

 NO OUTPUT CONTROL FOR STRESS PERIOD   48   TIME STEP   18
 
 SOLVING FOR HEAD 
                                                   Max.-Head-Change                         Max.-Flux-Residual
  Residual-Control   Outer-Iter.   Inner-Iter.     Column Row Layer    Maximum-Head-Change  Column Row Layer    Maximum-Flux-Residual          L2-NORM 
          0                 1           2             1    2     1       0.1394086022E-02       2    1    1         0.7110827346E-01      0.1316879359E+00
          0                 2           2             1    2     1      -0.1356066400E-03       2    1    1        -0.7110834438E-02      0.1315877201E-01
          0                 3           1             1    2     1       0.9234308970E-05       2    1    1         0.4977585502E-03      0.9196550954E-03

    ------------------------------------------------
       NWT REQUIRED            3 OUTER ITERATIONS 
       AND A TOTAL OF          5 INNER ITERATIONS.
    ------------------------------------------------

 NO OUTPUT CONTROL FOR STRESS PERIOD   48   TIME STEP   19
 
 SOLVING FOR HEAD 
                                                   Max.-Head-Change                         Max.-Flux-Residual
  Residual-Control   Outer-Iter.   Inner-Iter.     Column Row Layer    Maximum-Head-Change  Column Row Layer    Maximum-Flux-Residual          L2-NORM 
          0                 1           2             1    2     1       0.1391319702E-02       2    1    1         0.7089126463E-01      0.1307401615E+00
          0                 2           2             1    2     1      -0.1353375520E-03       2    1    1        -0.7089133499E-02      0.1306471741E-01
          0                 3           1             1    2     1       0.9215985016E-05       2    1    1         0.4962394841E-03      0.9139473907E-03

    ------------------------------------------------
       NWT REQUIRED            3 OUTER ITERATIONS 
       AND A TOTAL OF          5 INNER ITERATIONS.
    ------------------------------------------------

 NO OUTPUT CONTROL FOR STRESS PERIOD   48   TIME STEP   20
 
 SOLVING FOR HEAD 
                                                   Max.-Head-Change                         Max.-Flux-Residual
  Residual-Control   Outer-Iter.   Inner-Iter.     Column Row Layer    Maximum-Head-Change  Column Row Layer    Maximum-Flux-Residual          L2-NORM 
          0                 1           2             1    2     1       0.1388522862E-02       2    1    1         0.7067663470E-01      0.1298163652E+00
          0                 2           2             1    2     1      -0.1350654953E-03       2    1    1        -0.7067670473E-02      0.1297282001E-01
          0                 3           1             1    2     1       0.9197458705E-05       2    1    1         0.4947370839E-03      0.9072538375E-03

    ------------------------------------------------
       NWT REQUIRED            3 OUTER ITERATIONS 
       AND A TOTAL OF          5 INNER ITERATIONS.
    ------------------------------------------------

 NO OUTPUT CONTROL FOR STRESS PERIOD   48   TIME STEP   21
 
 SOLVING FOR HEAD 
                                                   Max.-Head-Change                         Max.-Flux-Residual
  Residual-Control   Outer-Iter.   Inner-Iter.     Column Row Layer    Maximum-Head-Change  Column Row Layer    Maximum-Flux-Residual          L2-NORM 
          0                 1           2             1    2     1       0.1385739711E-02       2    1    1         0.7046205728E-01      0.1289162179E+00
          0                 2           2             1    2     1      -0.1347947702E-03       2    1    1        -0.7046212665E-02      0.1288366470E-01
          0                 3           1             1    2     1       0.9179023751E-05       2    1    1         0.4932350376E-03      0.9011747483E-03

    ------------------------------------------------
       NWT REQUIRED            3 OUTER ITERATIONS 
       AND A TOTAL OF          5 INNER ITERATIONS.
    ------------------------------------------------

 NO OUTPUT CONTROL FOR STRESS PERIOD   48   TIME STEP   22
 
 SOLVING FOR HEAD 
                                                   Max.-Head-Change                         Max.-Flux-Residual
  Residual-Control   Outer-Iter.   Inner-Iter.     Column Row Layer    Maximum-Head-Change  Column Row Layer    Maximum-Flux-Residual          L2-NORM 
          0                 1           2             1    2     1       0.1383014314E-02       2    1    1         0.7024868331E-01      0.1280397406E+00
          0                 2           2             1    2     1      -0.1345296628E-03       2    1    1        -0.7024875220E-02      0.1279681591E-01
          0                 3           1             1    2     1       0.9160970787E-05       2    1    1         0.4917414128E-03      0.8952339702E-03

    ------------------------------------------------
       NWT REQUIRED            3 OUTER ITERATIONS 
       AND A TOTAL OF          5 INNER ITERATIONS.
    ------------------------------------------------

 NO OUTPUT CONTROL FOR STRESS PERIOD   48   TIME STEP   23
 
 SOLVING FOR HEAD 
                                                   Max.-Head-Change                         Max.-Flux-Residual
  Residual-Control   Outer-Iter.   Inner-Iter.     Column Row Layer    Maximum-Head-Change  Column Row Layer    Maximum-Flux-Residual          L2-NORM 
          0                 1           2             1    2     1       0.1380258018E-02       2    1    1         0.7003649665E-01      0.1271839002E+00
          0                 2           2             1    2     1      -0.1342615501E-03       2    1    1        -0.7003656493E-02      0.1271136171E-01
          0                 3           1             1    2     1       0.9142713338E-05       2    1    1         0.4902561103E-03      0.8909043317E-03

    ------------------------------------------------
       NWT REQUIRED            3 OUTER ITERATIONS 
       AND A TOTAL OF          5 INNER ITERATIONS.
    ------------------------------------------------

 NO OUTPUT CONTROL FOR STRESS PERIOD   48   TIME STEP   24
 
 SOLVING FOR HEAD 
                                                   Max.-Head-Change                         Max.-Flux-Residual
  Residual-Control   Outer-Iter.   Inner-Iter.     Column Row Layer    Maximum-Head-Change  Column Row Layer    Maximum-Flux-Residual          L2-NORM 
          0                 1           2             1    2     1       0.1377515043E-02       2    1    1         0.6982549206E-01      0.1263488491E+00
          0                 2           2             1    2     1      -0.1339947324E-03       2    1    1        -0.6982556005E-02      0.1262816234E-01
          0                 3           1             1    2     1       0.9124544167E-05       2    1    1         0.4887790802E-03      0.8833098138E-03

    ------------------------------------------------
       NWT REQUIRED            3 OUTER ITERATIONS 
       AND A TOTAL OF          5 INNER ITERATIONS.
    ------------------------------------------------

 NO OUTPUT CONTROL FOR STRESS PERIOD   48   TIME STEP   25
 
 SOLVING FOR HEAD 
                                                   Max.-Head-Change                         Max.-Flux-Residual
  Residual-Control   Outer-Iter.   Inner-Iter.     Column Row Layer    Maximum-Head-Change  Column Row Layer    Maximum-Flux-Residual          L2-NORM 
          0                 1           2             1    2     1       0.1374829532E-02       2    1    1         0.6961565903E-01      0.1255334863E+00
          0                 2           2             1    2     1      -0.1337335053E-03       2    1    1        -0.6961572616E-02      0.1254717634E-01
          0                 3           1             1    2     1       0.9106755804E-05       2    1    1         0.4873102298E-03      0.8777337577E-03

    ------------------------------------------------
       NWT REQUIRED            3 OUTER ITERATIONS 
       AND A TOTAL OF          5 INNER ITERATIONS.
    ------------------------------------------------

 NO OUTPUT CONTROL FOR STRESS PERIOD   48   TIME STEP   26
 
 SOLVING FOR HEAD 
                                                   Max.-Head-Change                         Max.-Flux-Residual
  Residual-Control   Outer-Iter.   Inner-Iter.     Column Row Layer    Maximum-Head-Change  Column Row Layer    Maximum-Flux-Residual          L2-NORM 
          0                 1           2             1    2     1       0.1372112758E-02       2    1    1         0.6940698720E-01      0.1247352736E+00
          0                 2           2             1    2     1      -0.1334692364E-03       2    1    1        -0.6940705401E-02      0.1246766394E-01
          0                 3           1             1    2     1       0.9088759405E-05       2    1    1         0.4858495244E-03      0.8721441435E-03

    ------------------------------------------------
       NWT REQUIRED            3 OUTER ITERATIONS 
       AND A TOTAL OF          5 INNER ITERATIONS.
    ------------------------------------------------

 NO OUTPUT CONTROL FOR STRESS PERIOD   48   TIME STEP   27
 
 SOLVING FOR HEAD 
                                                   Max.-Head-Change                         Max.-Flux-Residual
  Residual-Control   Outer-Iter.   Inner-Iter.     Column Row Layer    Maximum-Head-Change  Column Row Layer    Maximum-Flux-Residual          L2-NORM 
          0                 1           2             1    2     1       0.1369408952E-02       2    1    1         0.6919946631E-01      0.1239511466E+00
          0                 2           2             1    2     1      -0.1332062298E-03       2    1    1        -0.6919953250E-02      0.1238950922E-01
          0                 3           1             1    2     1       0.9070850102E-05       2    1    1         0.4843968640E-03      0.8666967673E-03

    ------------------------------------------------
       NWT REQUIRED            3 OUTER ITERATIONS 
       AND A TOTAL OF          5 INNER ITERATIONS.
    ------------------------------------------------

 NO OUTPUT CONTROL FOR STRESS PERIOD   48   TIME STEP   28
 
 SOLVING FOR HEAD 
                                                   Max.-Head-Change                         Max.-Flux-Residual
  Residual-Control   Outer-Iter.   Inner-Iter.     Column Row Layer    Maximum-Head-Change  Column Row Layer    Maximum-Flux-Residual          L2-NORM 
          0                 1           2             1    2     1       0.1366717997E-02       2    1    1         0.6899308628E-01      0.1231862057E+00
          0                 2           2             1    2     1      -0.1329444728E-03       2    1    1        -0.6899315212E-02      0.1231340588E-01
          0                 3           1             1    2     1       0.9053025291E-05       2    1    1         0.4829522175E-03      0.8614995991E-03

    ------------------------------------------------
       NWT REQUIRED            3 OUTER ITERATIONS 
       AND A TOTAL OF          5 INNER ITERATIONS.
    ------------------------------------------------

 NO OUTPUT CONTROL FOR STRESS PERIOD   48   TIME STEP   29
 
 SOLVING FOR HEAD 
                                                   Max.-Head-Change                         Max.-Flux-Residual
  Residual-Control   Outer-Iter.   Inner-Iter.     Column Row Layer    Maximum-Head-Change  Column Row Layer    Maximum-Flux-Residual          L2-NORM 
          0                 1           2             1    2     1       0.1364039781E-02       2    1    1         0.6878783710E-01      0.1224449407E+00
          0                 2           2             1    2     1      -0.1326839549E-03       2    1    1        -0.6878790254E-02      0.1223957604E-01
          0                 3           1             1    2     1       0.9035284973E-05       2    1    1         0.4815154727E-03      0.8562717000E-03

    ------------------------------------------------
       NWT REQUIRED            3 OUTER ITERATIONS 
       AND A TOTAL OF          5 INNER ITERATIONS.
    ------------------------------------------------

 NO OUTPUT CONTROL FOR STRESS PERIOD   48   TIME STEP   30



 STREAM LISTING     PERIOD     48   STEP       30

 LAYER ROW COL. STREAM  RCH.  FLOW INTO     FLOW TO   FLOW OUT OF   OVRLND.     DIRECT     STREAM       STREAM     STREAM     STREAM   STREAMBED  STREAMBED
                SEG.NO.  NO.  STRM. RCH.    AQUIFER    STRM. RCH.    RUNOFF     PRECIP       ET          HEAD       DEPTH      WIDTH   CONDCTNC.   GRADIENT

   1    1    1     1     1    1.5750E+01  1.9239E-01   1.5557E+01  0.000E+00  0.000E+00  0.000E+00  1.09407E+03  1.025E+00  1.062E+01  4.780E-02  1.342E+00
   1    2    2     1     2    1.5557E+01  2.9659E-01   1.5261E+01  0.000E+00  0.000E+00  0.000E+00  1.08908E+03  1.020E+00  1.054E+01  7.378E-02  1.340E+00
   1    3    3     1     3    1.5261E+01  2.5163E-01   1.5009E+01  0.000E+00  0.000E+00  0.000E+00  1.08343E+03  1.015E+00  1.045E+01  6.268E-02  1.338E+00
   1    3    4     1     4    1.5009E+01  2.3063E-01   1.4778E+01  0.000E+00  0.000E+00  0.000E+00  1.07842E+03  1.010E+00  1.036E+01  5.751E-02  1.337E+00
   1    4    5     2     1    1.2778E+01  2.9653E-01   1.2482E+01  0.000E+00  0.000E+00  0.000E+00  1.07274E+03  8.017E-01  1.200E+01  7.800E-02  1.267E+00
   1    5    6     2     2    1.2482E+01  2.2750E-01   1.2254E+01  0.000E+00  0.000E+00  0.000E+00  1.06730E+03  7.916E-01  1.200E+01  6.000E-02  1.264E+00
   1    6    6     2     3    1.2254E+01  2.2697E-01   1.2027E+01  0.000E+00  0.000E+00  0.000E+00  1.06258E+03  7.829E-01  1.200E+01  6.000E-02  1.261E+00
   1    7    6     2     4    1.2027E+01  2.2644E-01   1.1801E+01  0.000E+00  0.000E+00  0.000E+00  1.05785E+03  7.741E-01  1.200E+01  6.000E-02  1.258E+00
   1    8    6     2     5    1.1801E+01  2.2591E-01   1.1575E+01  0.000E+00  0.000E+00  0.000E+00  1.05312E+03  7.652E-01  1.200E+01  6.000E-02  1.255E+00
   1    3    5     3     1    2.0000E+00  2.8252E-01   1.7175E+00  0.000E+00  0.000E+00  0.000E+00  1.07555E+03  1.909E+00  9.636E+00  7.227E-02  1.955E+00
   1    3    6     3     2    1.7175E+00  2.4905E-01   1.4684E+00  0.000E+00  0.000E+00  0.000E+00  1.07264E+03  1.727E+00  8.909E+00  6.682E-02  1.864E+00
   1    3    7     3     3    1.4684E+00  1.9718E-01   1.2712E+00  0.000E+00  0.000E+00  0.000E+00  1.06987E+03  1.555E+00  8.218E+00  5.547E-02  1.777E+00
   1    4    8     3     4    1.2712E+00  2.2567E-01   1.0456E+00  0.000E+00  0.000E+00  0.000E+00  1.06682E+03  1.364E+00  7.455E+00  6.709E-02  1.682E+00
   1    5    8     3     5    1.0456E+00  1.5790E-01   8.8768E-01  0.000E+00  0.000E+00  0.000E+00  1.06362E+03  1.164E+00  6.655E+00  4.991E-02  1.582E+00
   1    6    8     3     6    8.8768E-01  5.5980E-02   8.3170E-01  0.000E+00  0.000E+00  0.000E+00  1.06158E+03  1.036E+00  6.145E+00  1.844E-02  1.518E+00
   1    5   10     4     1    1.0000E+01  9.0919E-02   9.9091E+00  0.000E+00  0.000E+00  0.000E+00  1.07836E+03  6.368E-01  1.000E+01  2.500E-02  1.212E+00
   1    5    9     4     2    9.9091E+00  1.8158E-01   9.7275E+00  0.000E+00  0.000E+00  0.000E+00  1.07154E+03  6.315E-01  1.000E+01  5.000E-02  1.211E+00
   1    6    8     4     3    9.7275E+00  1.2689E-01   9.6006E+00  0.000E+00  0.000E+00  0.000E+00  1.06381E+03  6.256E-01  1.000E+01  3.500E-02  1.209E+00
   1    6    8     5     1    1.0432E+01  2.2686E-01   1.0205E+01  0.000E+00  0.000E+00  0.000E+00  1.05868E+03  6.790E-01  1.542E+01  6.166E-02  1.226E+00
   1    7    7     5     2    1.0205E+01  2.7894E-01   9.9265E+00  0.000E+00  0.000E+00  0.000E+00  1.05417E+03  6.732E-01  1.519E+01  7.594E-02  1.224E+00
   1    8    7     5     3    9.9265E+00  1.9221E-01   9.7343E+00  0.000E+00  0.000E+00  0.000E+00  1.04992E+03  6.676E-01  1.497E+01  5.241E-02  1.223E+00
   1    8    6     5     4    9.7343E+00  1.3577E-01   9.5985E+00  0.000E+00  0.000E+00  0.000E+00  1.04691E+03  6.637E-01  1.482E+01  3.706E-02  1.221E+00
   1    9    6     6     1    2.1173E+01  2.4608E-01   2.0927E+01  0.000E+00  0.000E+00  0.000E+00  1.04383E+03  1.101E+00  1.200E+01  6.000E-02  1.367E+00
   1   10    7     6     2    2.0927E+01  2.4562E-01   2.0682E+01  0.000E+00  0.000E+00  0.000E+00  1.03928E+03  1.094E+00  1.200E+01  6.000E-02  1.365E+00
   1   11    7     6     3    2.0682E+01  2.4515E-01   2.0437E+01  0.000E+00  0.000E+00  0.000E+00  1.03472E+03  1.086E+00  1.200E+01  6.000E-02  1.362E+00
   1   12    7     6     4    2.0437E+01  2.4468E-01   2.0192E+01  0.000E+00  0.000E+00  0.000E+00  1.03017E+03  1.078E+00  1.200E+01  6.000E-02  1.359E+00
   1   13    7     6     5    2.0192E+01 -4.4872E-02   2.0237E+01  0.000E+00  0.000E+00  0.000E+00  1.02698E+03  1.075E+00  1.200E+01  2.400E-01 -6.232E-02
   1   14    9     7     1    1.5000E+02  1.3316E+00   1.4867E+02  0.000E+00  0.000E+00  0.000E+00  1.03987E+03  2.288E+00  5.529E+01  5.593E-01  7.936E-01
   1   13    8     7     2    1.4867E+02  1.8049E+00   1.4686E+02  0.000E+00  0.000E+00  0.000E+00  1.03478E+03  2.279E+00  5.526E+01  6.148E-01  9.786E-01
   1   13    7     7     3    1.4686E+02  1.4069E+00   1.4546E+02  0.000E+00  0.000E+00  0.000E+00  1.02969E+03  2.271E+00  5.522E+01  5.585E-01  8.397E-01
   1   13    6     8     1    1.6569E+02  8.2930E-01   1.6486E+02  0.000E+00  0.000E+00  0.000E+00  1.02480E+03  2.921E+00  4.236E+01  4.316E-01  6.404E-01
   1   13    5     8     2    1.6486E+02  9.0643E-02   1.6477E+02  0.000E+00  0.000E+00  0.000E+00  1.01854E+03  2.918E+00  4.231E+01  4.312E-01  7.007E-02
   1   13    4     8     3    1.6477E+02 -2.7246E+00   1.6750E+02  0.000E+00  0.000E+00  0.000E+00  1.01230E+03  2.927E+00  4.244E+01  4.325E+00 -2.100E-01
   1   13    3     8     4    1.6750E+02 -3.7779E+00   1.7128E+02  0.000E+00  0.000E+00  0.000E+00  1.00607E+03  2.948E+00  4.275E+01  4.356E+00 -2.891E-01
   1   13    2     8     5    1.7128E+02 -2.6064E+00   1.7388E+02  0.000E+00  0.000E+00  0.000E+00  9.99844E+02  2.969E+00  4.305E+01  4.387E+00 -1.980E-01
   1   13    1     8     6    1.7388E+02 -1.9910E+00   1.7587E+02  0.000E+00  0.000E+00  0.000E+00  9.94859E+02  2.984E+00  4.326E+01  2.645E+00 -2.509E-01
   1    8    6     9     1    0.0000E+00  0.0000E+00   0.0000E+00  0.000E+00  0.000E+00  0.000E+00  1.07875E+03  0.000E+00  4.000E+00  0.000E+00  1.000E+00
   1    8    5     9     2    0.0000E+00  0.0000E+00   0.0000E+00  0.000E+00  0.000E+00  0.000E+00  1.07825E+03  0.000E+00  4.000E+00  0.000E+00  1.000E+00





UNSATURATED ZONE PACKAGE VOLUMETRIC BUDGET FOR  TIME STEP    30 STRESS PERIOD   48
  ------------------------------------------------------------------------------



     CUMULATIVE VOLUMES      L**3       RATES FOR THIS TIME STEP      L**3/T
     ------------------                 ------------------------

           IN:                                      IN:
           ---                                      ---
        INFILTRATION =   545733097.8914          INFILTRATION =           4.4075

          OUT:                                     OUT:
          ----                                     ----
              UZF ET =   406117754.8932                UZF ET =           0.7250
        UZF RECHARGE =     2053800.1856          UZF RECHARGE =       0.0000E+00

            IN - OUT =   137561542.8126              IN - OUT =           3.6825

          STORAGE:                                 STORAGE:
          --------                                 --------
      STORAGE CHANGE =   137563753.6113        STORAGE CHANGE =           3.6825

 PERCENT DISCREPANCY IS DIFFERENCE BETWEEN IN-OUT MINUS CHANGE IN STORAGE
 DIVIDED BY THE AVERAGE OF IN AND OUT TIMES 100

 PERCENT DISCREPANCY =          -0.00     PERCENT DISCREPANCY =           0.00






1
  VOLUMETRIC BUDGET FOR ENTIRE MODEL AT END OF TIME STEP   30, STRESS PERIOD  48
  ------------------------------------------------------------------------------

     CUMULATIVE VOLUMES      L**3       RATES FOR THIS TIME STEP      L**3/T
     ------------------                 ------------------------

           IN:                                      IN:
           ---                                      ---
               AG WELLS  =           0.0000                 AG WELLS  =           0.0000
        DIVERSION SEGMEN =      848802.5000          DIVERSION SEGMEN =           0.0000
    TS         GW IRRIGA =           0.0000      TS         GW IRRIGA =           0.0000
    TION         SW IRRI =           0.0000      TION         SW IRRI =           0.0000
    GATION      SYSTEM L =           0.0000      GATION      SYSTEM L =           0.0000
    OSSES GW      SYSTEM =           0.1856      OSSES GW      SYSTEM =           0.0000

                TOTAL IN =      848802.6875                  TOTAL IN =           0.0000

          OUT:                                     OUT:
          ----                                     ----
               AG WELLS  =           0.0000                 AG WELLS  =           0.0000
        DIVERSION SEGMEN =           0.0000          DIVERSION SEGMEN =           0.0000
    TS         GW IRRIGA =           0.0000      TS         GW IRRIGA =           0.0000
    TION         SW IRRI =      848819.6875      TION         SW IRRI =           0.0000
    GATION      SYSTEM L =           0.0000      GATION      SYSTEM L =           0.0000
    OSSES GW      SYSTEM =           0.0000      OSSES GW      SYSTEM =           0.0000

               TOTAL OUT =      848819.6875                 TOTAL OUT =           0.0000

                IN - OUT =         -17.0000                  IN - OUT =           0.0000

     PERCENT DISCREPANCY =          -0.00         PERCENT DISCREPANCY =           0.00



1
  VOLUMETRIC BUDGET FOR ENTIRE MODEL AT END OF TIME STEP   30, STRESS PERIOD  48
  ------------------------------------------------------------------------------

     CUMULATIVE VOLUMES      L**3       RATES FOR THIS TIME STEP      L**3/T
     ------------------                 ------------------------

           IN:                                      IN:
           ---                                      ---
             STORAGE     =    60784836.0000               STORAGE     =           0.4497
       CONSTANT HEAD     =           0.0000         CONSTANT HEAD     =           0.0000
     HEAD DEP BOUNDS     =    35327484.0000       HEAD DEP BOUNDS     =           0.2855
      STREAM LEAKAGE     =  1471692928.0000        STREAM LEAKAGE     =          11.0209
        UZF RECHARGE     =     2053800.1250          UZF RECHARGE     =           0.0000
               GW ET     =           0.0000                 GW ET     =           0.0000
     SURFACE LEAKAGE     =           0.0000       SURFACE LEAKAGE     =           0.0000
           AG WELLS      =           0.0000             AG WELLS      =           0.0000

                TOTAL IN =  1569858944.0000                  TOTAL IN =          11.7561

          OUT:                                     OUT:
          ----                                     ----
             STORAGE     =   178789264.0000               STORAGE     =           0.3219
       CONSTANT HEAD     =           0.0000         CONSTANT HEAD     =           0.0000
     HEAD DEP BOUNDS     =    36163724.0000       HEAD DEP BOUNDS     =           0.2892
      STREAM LEAKAGE     =  1335122048.0000        STREAM LEAKAGE     =          11.1449
        UZF RECHARGE     =           0.0000          UZF RECHARGE     =           0.0000
               GW ET     =    19807256.0000                 GW ET     =           0.0000
     SURFACE LEAKAGE     =           0.0000       SURFACE LEAKAGE     =           0.0000
           AG WELLS      =           0.0000             AG WELLS      =           0.0000

               TOTAL OUT =  1569882240.0000                 TOTAL OUT =          11.7560

                IN - OUT =      -23296.0000                  IN - OUT =       4.1008E-05

     PERCENT DISCREPANCY =          -0.00         PERCENT DISCREPANCY =           0.00






         TIME SUMMARY AT END OF TIME STEP   30 IN STRESS PERIOD   48
                    SECONDS     MINUTES      HOURS       DAYS        YEARS
                    -----------------------------------------------------------
   TIME STEP LENGTH  87667.      1461.1      24.352      1.0147     2.77799E-03
 STRESS PERIOD TIME 2.63000E+06  43833.      730.56      30.440     8.33397E-02
         TOTAL TIME 1.23695E+08 2.06158E+06  34360.      1431.7      3.9197    
1
1
                            STRESS PERIOD NO.   49, LENGTH =   2630000.    
                            -----------------------------------------------

                              NUMBER OF TIME STEPS =    30

                               MULTIPLIER FOR DELT =     1.000

                            INITIAL TIME STEP SIZE =   87666.66    

 REUSING NON-PARAMETER GHB CELLS FROM LAST STRESS PERIOD

      2 GHB CELLS

 REUSING STREAM SEGMENT DATA FROM LAST STRESS PERIOD



            AREAL INFILTRATION RATE
 READING ON UNIT   19 WITH FORMAT: (10F4.0)            

            1           2           3           4           5           6           7           8           9          10
 ........................................................................................................................
   1   1.2000E-09   0.000       0.000       0.000       0.000       0.000       0.000       0.000       0.000       0.000    
   2   2.1000E-09  2.0000E-09  8.0000E-10  8.5000E-09   0.000       0.000       0.000       0.000       0.000       0.000    
   3   5.0000E-10  1.1000E-09  8.8000E-09  5.5000E-09   0.000       0.000       0.000       0.000       0.000       0.000    
   4   8.5000E-09  1.1000E-09  1.1000E-09  1.1000E-09  2.0000E-09   0.000       0.000       0.000       0.000       0.000    
   5   8.5000E-09  1.1000E-09  1.1000E-09  1.1000E-09  1.1000E-09   0.000       0.000       0.000       0.000       0.000    
   6   8.5000E-09  5.2000E-09  2.1000E-09  1.1000E-09  1.5000E-09   0.000       0.000       0.000       0.000       0.000    
   7   8.5000E-09  5.2000E-09  2.1000E-09  1.2000E-09  2.0000E-09   0.000       0.000       0.000       0.000       0.000    
   8   5.0000E-10  5.2000E-09  2.1000E-09  1.2000E-09  5.0000E-09   0.000       0.000       0.000       0.000       0.000    
   9   5.0000E-10  5.2000E-09  2.1000E-09  1.2000E-09  5.0000E-09   0.000       0.000       0.000       0.000       0.000    
  10   5.0000E-10  5.2000E-09  2.1000E-09  1.2000E-09  5.8000E-09   0.000       0.000       0.000       0.000       0.000    
  11   1.0000E-10  1.1000E-09  1.1000E-09  1.2000E-09  5.0000E-09   0.000       0.000       0.000       0.000       0.000    
  12   1.1000E-09  1.1000E-09  1.1000E-09  1.1000E-09  2.0000E-09   0.000       0.000       0.000       0.000       0.000    
  13   1.1000E-09  2.2000E-09  2.2000E-09  2.1000E-09  1.0000E-09   0.000       0.000       0.000       0.000       0.000    
  14   2.0000E-10  5.5000E-09  5.5000E-09  5.2000E-09  1.0000E-09   0.000       0.000       0.000       0.000       0.000    
  15    0.000      8.8000E-09  8.8000E-09   0.000       0.000       0.000       0.000       0.000       0.000       0.000    

                  ET RATE =  5.000000E-10

 USING ET EXTINCTION DEPTH FROM PREVIOUS STRESS PERIOD. CURRENT PERIOD IS:      49

 USING EXTINCTION WATER CONTENT FROM PREVIOUS STRESS PERIOD. CURRENT PERIOD IS:      49

 USING AIR ENTRY PRESSURE FROM PREVIOUS STRESS PERIOD. CURRENT PERIOD IS:      49

 USING ROOT PRESSURE HEAD FROM PREVIOUS STRESS PERIOD. CURRENT PERIOD IS:      49

 USING ROOT ACTIVITY FROM PREVIOUS STRESS PERIOD. CURRENT PERIOD IS:      49

 PROCESSING AG STRESS PERIOD DATA

 READING AG STRESS PERIOD DATA

 READING IRRIGATION SEGMENT

 READING IRRIGATION WELL

 READING SUPPLEMENTAL WELL

 END PROCESSING AG STRESS PERIOD DATA OPTIONS
 
 SOLVING FOR HEAD 
                                                   Max.-Head-Change                         Max.-Flux-Residual
  Residual-Control   Outer-Iter.   Inner-Iter.     Column Row Layer    Maximum-Head-Change  Column Row Layer    Maximum-Flux-Residual          L2-NORM 
          0                 1           2             1    2     1       0.1361418461E-02       2    1    1         0.6858254961E-01      0.1217111873E+00
          0                 2           2             1    2     1      -0.1324289723E-03       2    1    1        -0.6858261453E-02      0.1216647747E-01
          0                 3           1             1    2     1       0.9017921675E-05       2    1    1         0.4800784577E-03      0.8512865668E-03

    ------------------------------------------------
       NWT REQUIRED            3 OUTER ITERATIONS 
       AND A TOTAL OF          5 INNER ITERATIONS.
    ------------------------------------------------

 NO OUTPUT CONTROL FOR STRESS PERIOD   49   TIME STEP    1
 
 SOLVING FOR HEAD 
                                                   Max.-Head-Change                         Max.-Flux-Residual
  Residual-Control   Outer-Iter.   Inner-Iter.     Column Row Layer    Maximum-Head-Change  Column Row Layer    Maximum-Flux-Residual          L2-NORM 
          0                 1           2             1    2     1       0.1358765323E-02       2    1    1         0.6837953568E-01      0.1209929536E+00
          0                 2           2             1    2     1      -0.1321708929E-03       2    1    1        -0.6837960002E-02      0.1209489900E-01
          0                 3           1             1    2     1       0.9000347501E-05       2    1    1         0.4786573424E-03      0.8461752109E-03

    ------------------------------------------------
       NWT REQUIRED            3 OUTER ITERATIONS 
       AND A TOTAL OF          5 INNER ITERATIONS.
    ------------------------------------------------

 NO OUTPUT CONTROL FOR STRESS PERIOD   49   TIME STEP    2
 
 SOLVING FOR HEAD 
                                                   Max.-Head-Change                         Max.-Flux-Residual
  Residual-Control   Outer-Iter.   Inner-Iter.     Column Row Layer    Maximum-Head-Change  Column Row Layer    Maximum-Flux-Residual          L2-NORM 
          0                 1           2             1    2     1       0.1356124592E-02       2    1    1         0.6817762500E-01      0.1202840350E+00
          0                 2           2             1    2     1      -0.1319140216E-03       2    1    1        -0.6817768888E-02      0.1202424575E-01
          0                 3           1             1    2     1       0.8982855926E-05       2    1    1         0.4772439834E-03      0.8413430526E-03

    ------------------------------------------------
       NWT REQUIRED            3 OUTER ITERATIONS 
       AND A TOTAL OF          5 INNER ITERATIONS.
    ------------------------------------------------

 NO OUTPUT CONTROL FOR STRESS PERIOD   49   TIME STEP    3
 
 SOLVING FOR HEAD 
                                                   Max.-Head-Change                         Max.-Flux-Residual
  Residual-Control   Outer-Iter.   Inner-Iter.     Column Row Layer    Maximum-Head-Change  Column Row Layer    Maximum-Flux-Residual          L2-NORM 
          0                 1           2             1    2     1       0.1353387117E-02       2    1    1         0.6797680649E-01      0.1258036349E+00
          0                 2           2             1    2     1      -0.1316477404E-03       2    1    1        -0.6797687086E-02      0.1256443716E-01
          0                 3           1             1    2     1       0.8964722494E-05       2    1    1         0.4758382425E-03      0.8780686960E-03

    ------------------------------------------------
       NWT REQUIRED            3 OUTER ITERATIONS 
       AND A TOTAL OF          5 INNER ITERATIONS.
    ------------------------------------------------

 NO OUTPUT CONTROL FOR STRESS PERIOD   49   TIME STEP    4
 
 SOLVING FOR HEAD 
                                                   Max.-Head-Change                         Max.-Flux-Residual
  Residual-Control   Outer-Iter.   Inner-Iter.     Column Row Layer    Maximum-Head-Change  Column Row Layer    Maximum-Flux-Residual          L2-NORM 
          0                 1           2             1    2     1       0.1350561577E-02       2    1    1         0.6776857902E-01      0.1319595590E+00
          0                 2           2             1    2     1      -0.1313728930E-03       2    1    1        -0.6776864376E-02      0.1316483342E-01
          0                 3           1             1    2     1       0.8946006371E-05       2    1    1         0.4743806590E-03      0.9186223904E-03

    ------------------------------------------------
       NWT REQUIRED            3 OUTER ITERATIONS 
       AND A TOTAL OF          5 INNER ITERATIONS.
    ------------------------------------------------

 NO OUTPUT CONTROL FOR STRESS PERIOD   49   TIME STEP    5
 
 SOLVING FOR HEAD 
                                                   Max.-Head-Change                         Max.-Flux-Residual
  Residual-Control   Outer-Iter.   Inner-Iter.     Column Row Layer    Maximum-Head-Change  Column Row Layer    Maximum-Flux-Residual          L2-NORM 
          0                 1           2             1    2     1       0.1347749642E-02       2    1    1         0.6755246642E-01      0.1306747330E+00
          0                 2           2             1    2     1      -0.1310993683E-03       2    1    1        -0.6755253060E-02      0.1303947503E-01
          0                 3           1             1    2     1       0.8927380421E-05       2    1    1         0.4728678556E-03      0.9101923144E-03

    ------------------------------------------------
       NWT REQUIRED            3 OUTER ITERATIONS 
       AND A TOTAL OF          5 INNER ITERATIONS.
    ------------------------------------------------

 NO OUTPUT CONTROL FOR STRESS PERIOD   49   TIME STEP    6
 
 SOLVING FOR HEAD 
                                                   Max.-Head-Change                         Max.-Flux-Residual
  Residual-Control   Outer-Iter.   Inner-Iter.     Column Row Layer    Maximum-Head-Change  Column Row Layer    Maximum-Flux-Residual          L2-NORM 
          0                 1           2             1    2     1       0.1344951173E-02       2    1    1         0.6733871226E-01      0.1294681793E+00
          0                 2           2             1    2     1      -0.1308271527E-03       2    1    1        -0.6733877635E-02      0.1292191498E-01
          0                 3           1             1    2     1       0.8908843224E-05       2    1    1         0.4713715750E-03      0.9022978591E-03

    ------------------------------------------------
       NWT REQUIRED            3 OUTER ITERATIONS 
       AND A TOTAL OF          5 INNER ITERATIONS.
    ------------------------------------------------

 NO OUTPUT CONTROL FOR STRESS PERIOD   49   TIME STEP    7
 
 SOLVING FOR HEAD 
                                                   Max.-Head-Change                         Max.-Flux-Residual
  Residual-Control   Outer-Iter.   Inner-Iter.     Column Row Layer    Maximum-Head-Change  Column Row Layer    Maximum-Flux-Residual          L2-NORM 
          0                 1           2             1    2     1       0.1342166029E-02       2    1    1         0.6712613978E-01      0.1283407748E+00
          0                 2           2             1    2     1      -0.1305562337E-03       2    1    1        -0.6712620305E-02      0.1281075792E-01
          0                 3           1             1    2     1       0.8890394779E-05       2    1    1         0.4698835661E-03      0.8941690857E-03

    ------------------------------------------------
       NWT REQUIRED            3 OUTER ITERATIONS 
       AND A TOTAL OF          5 INNER ITERATIONS.
    ------------------------------------------------

 NO OUTPUT CONTROL FOR STRESS PERIOD   49   TIME STEP    8
 
 SOLVING FOR HEAD 
                                                   Max.-Head-Change                         Max.-Flux-Residual
  Residual-Control   Outer-Iter.   Inner-Iter.     Column Row Layer    Maximum-Head-Change  Column Row Layer    Maximum-Flux-Residual          L2-NORM 
          0                 1           2             1    2     1       0.1339394182E-02       2    1    1         0.6691357739E-01      0.1272691451E+00
          0                 2           2             1    2     1      -0.1302866080E-03       2    1    1        -0.6691364026E-02      0.1270640581E-01
          0                 3           1             1    2     1       0.8872034377E-05       2    1    1         0.4683956287E-03      0.8874525823E-03

    ------------------------------------------------
       NWT REQUIRED            3 OUTER ITERATIONS 
       AND A TOTAL OF          5 INNER ITERATIONS.
    ------------------------------------------------

 NO OUTPUT CONTROL FOR STRESS PERIOD   49   TIME STEP    9
 
 SOLVING FOR HEAD 
                                                   Max.-Head-Change                         Max.-Flux-Residual
  Residual-Control   Outer-Iter.   Inner-Iter.     Column Row Layer    Maximum-Head-Change  Column Row Layer    Maximum-Flux-Residual          L2-NORM 
          0                 1           2             1    2     1       0.1336635426E-02       2    1    1         0.6670334408E-01      0.1262550836E+00
          0                 2           2             1    2     1      -0.1300182559E-03       2    1    1        -0.6670340651E-02      0.1260766583E-01
          0                 3           1             1    2     1       0.8853760597E-05       2    1    1         0.4669239873E-03      0.8809163790E-03

    ------------------------------------------------
       NWT REQUIRED            3 OUTER ITERATIONS 
       AND A TOTAL OF          5 INNER ITERATIONS.
    ------------------------------------------------

 NO OUTPUT CONTROL FOR STRESS PERIOD   49   TIME STEP   10
 
 SOLVING FOR HEAD 
                                                   Max.-Head-Change                         Max.-Flux-Residual
  Residual-Control   Outer-Iter.   Inner-Iter.     Column Row Layer    Maximum-Head-Change  Column Row Layer    Maximum-Flux-Residual          L2-NORM 
          0                 1           2             1    2     1       0.1333889736E-02       2    1    1         0.6649310042E-01      0.1252794922E+00
          0                 2           2             1    2     1      -0.1297511745E-03       2    1    1        -0.6649316236E-02      0.1251161039E-01
          0                 3           1             1    2     1       0.8835573203E-05       2    1    1         0.4654522897E-03      0.8742067155E-03

    ------------------------------------------------
       NWT REQUIRED            3 OUTER ITERATIONS 
       AND A TOTAL OF          5 INNER ITERATIONS.
    ------------------------------------------------

 NO OUTPUT CONTROL FOR STRESS PERIOD   49   TIME STEP   11
 
 SOLVING FOR HEAD 
                                                   Max.-Head-Change                         Max.-Flux-Residual
  Residual-Control   Outer-Iter.   Inner-Iter.     Column Row Layer    Maximum-Head-Change  Column Row Layer    Maximum-Flux-Residual          L2-NORM 
          0                 1           2             1    2     1       0.1331156975E-02       2    1    1         0.6628516581E-01      0.1243528045E+00
          0                 2           2             1    2     1      -0.1294853516E-03       2    1    1        -0.6628522713E-02      0.1242042470E-01
          0                 3           1             1    2     1       0.8817472431E-05       2    1    1         0.4639967347E-03      0.8680481762E-03

    ------------------------------------------------
       NWT REQUIRED            3 OUTER ITERATIONS 
       AND A TOTAL OF          5 INNER ITERATIONS.
    ------------------------------------------------

 NO OUTPUT CONTROL FOR STRESS PERIOD   49   TIME STEP   12
 
 SOLVING FOR HEAD 
                                                   Max.-Head-Change                         Max.-Flux-Residual
  Residual-Control   Outer-Iter.   Inner-Iter.     Column Row Layer    Maximum-Head-Change  Column Row Layer    Maximum-Flux-Residual          L2-NORM 
          0                 1           2             1    2     1       0.1328436986E-02       2    1    1         0.6607720621E-01      0.1234648782E+00
          0                 2           2             1    2     1      -0.1292207703E-03       2    1    1        -0.6607726731E-02      0.1233282695E-01
          0                 3           1             1    2     1       0.8799454968E-05       2    1    1         0.4625410167E-03      0.8620960196E-03

    ------------------------------------------------
       NWT REQUIRED            3 OUTER ITERATIONS 
       AND A TOTAL OF          5 INNER ITERATIONS.
    ------------------------------------------------

 NO OUTPUT CONTROL FOR STRESS PERIOD   49   TIME STEP   13
 
 SOLVING FOR HEAD 
                                                   Max.-Head-Change                         Max.-Flux-Residual
  Residual-Control   Outer-Iter.   Inner-Iter.     Column Row Layer    Maximum-Head-Change  Column Row Layer    Maximum-Flux-Residual          L2-NORM 
          0                 1           2             1    2     1       0.1325729704E-02       2    1    1         0.6587153075E-01      0.1226149297E+00
          0                 2           2             1    2     1      -0.1289574251E-03       2    1    1        -0.6587159127E-02      0.1224919519E-01
          0                 3           1             1    2     1       0.8781521997E-05       2    1    1         0.4611012991E-03      0.8563145432E-03

    ------------------------------------------------
       NWT REQUIRED            3 OUTER ITERATIONS 
       AND A TOTAL OF          5 INNER ITERATIONS.
    ------------------------------------------------

 NO OUTPUT CONTROL FOR STRESS PERIOD   49   TIME STEP   14
 
 SOLVING FOR HEAD 
                                                   Max.-Head-Change                         Max.-Flux-Residual
  Residual-Control   Outer-Iter.   Inner-Iter.     Column Row Layer    Maximum-Head-Change  Column Row Layer    Maximum-Flux-Residual          L2-NORM 
          0                 1           2             1    2     1       0.1323035042E-02       2    1    1         0.6566581090E-01      0.1217889343E+00
          0                 2           2             1    2     1      -0.1286953075E-03       2    1    1        -0.6566587101E-02      0.1216756835E-01
          0                 3           1             1    2     1       0.8763672809E-05       2    1    1         0.4596612466E-03      0.8507589486E-03

    ------------------------------------------------
       NWT REQUIRED            3 OUTER ITERATIONS 
       AND A TOTAL OF          5 INNER ITERATIONS.
    ------------------------------------------------

 NO OUTPUT CONTROL FOR STRESS PERIOD   49   TIME STEP   15
 
 SOLVING FOR HEAD 
                                                   Max.-Head-Change                         Max.-Flux-Residual
  Residual-Control   Outer-Iter.   Inner-Iter.     Column Row Layer    Maximum-Head-Change  Column Row Layer    Maximum-Flux-Residual          L2-NORM 
          0                 1           2             1    2     1       0.1320352890E-02       2    1    1         0.6546236145E-01      0.1209955333E+00
          0                 2           2             1    2     1      -0.1284344069E-03       2    1    1        -0.6546242120E-02      0.1208935718E-01
          0                 3           1             1    2     1       0.8745906220E-05       2    1    1         0.4582370951E-03      0.8452987598E-03

    ------------------------------------------------
       NWT REQUIRED            3 OUTER ITERATIONS 
       AND A TOTAL OF          5 INNER ITERATIONS.
    ------------------------------------------------

 NO OUTPUT CONTROL FOR STRESS PERIOD   49   TIME STEP   16
 
 SOLVING FOR HEAD 
                                                   Max.-Head-Change                         Max.-Flux-Residual
  Residual-Control   Outer-Iter.   Inner-Iter.     Column Row Layer    Maximum-Head-Change  Column Row Layer    Maximum-Flux-Residual          L2-NORM 
          0                 1           2             1    2     1       0.1317638826E-02       2    1    1         0.6525885018E-01      0.1202272757E+00
          0                 2           2             1    2     1      -0.1281704019E-03       2    1    1        -0.6525890934E-02      0.1201326983E-01
          0                 3           1             1    2     1       0.8727928755E-05       2    1    1         0.4568125242E-03      0.8399802586E-03

    ------------------------------------------------
       NWT REQUIRED            3 OUTER ITERATIONS 
       AND A TOTAL OF          5 INNER ITERATIONS.
    ------------------------------------------------

 NO OUTPUT CONTROL FOR STRESS PERIOD   49   TIME STEP   17
 
 SOLVING FOR HEAD 
                                                   Max.-Head-Change                         Max.-Flux-Residual
  Residual-Control   Outer-Iter.   Inner-Iter.     Column Row Layer    Maximum-Head-Change  Column Row Layer    Maximum-Flux-Residual          L2-NORM 
          0                 1           2             1    2     1       0.1314981441E-02       2    1    1         0.6505642908E-01      0.1194813008E+00
          0                 2           2             1    2     1      -0.1279119106E-03       2    1    1        -0.6505648804E-02      0.1193962656E-01
          0                 3           1             1    2     1       0.8710326417E-05       2    1    1         0.4553955410E-03      0.8349711302E-03

    ------------------------------------------------
       NWT REQUIRED            3 OUTER ITERATIONS 
       AND A TOTAL OF          5 INNER ITERATIONS.
    ------------------------------------------------

 NO OUTPUT CONTROL FOR STRESS PERIOD   49   TIME STEP   18
 
 SOLVING FOR HEAD 
                                                   Max.-Head-Change                         Max.-Flux-Residual
  Residual-Control   Outer-Iter.   Inner-Iter.     Column Row Layer    Maximum-Head-Change  Column Row Layer    Maximum-Flux-Residual          L2-NORM 
          0                 1           2             1    2     1       0.1312336230E-02       2    1    1         0.6485625064E-01      0.1187575813E+00
          0                 2           2             1    2     1      -0.1276546034E-03       2    1    1        -0.6485630888E-02      0.1186801753E-01
          0                 3           1             1    2     1       0.8692804785E-05       2    1    1         0.4539943090E-03      0.8300220727E-03

    ------------------------------------------------
       NWT REQUIRED            3 OUTER ITERATIONS 
       AND A TOTAL OF          5 INNER ITERATIONS.
    ------------------------------------------------

 NO OUTPUT CONTROL FOR STRESS PERIOD   49   TIME STEP   19
 
 SOLVING FOR HEAD 
                                                   Max.-Head-Change                         Max.-Flux-Residual
  Residual-Control   Outer-Iter.   Inner-Iter.     Column Row Layer    Maximum-Head-Change  Column Row Layer    Maximum-Flux-Residual          L2-NORM 
          0                 1           2             1    2     1       0.1309703112E-02       2    1    1         0.6465598111E-01      0.1180563257E+00
          0                 2           2             1    2     1      -0.1273984724E-03       2    1    1        -0.6465603906E-02      0.1179826426E-01
          0                 3           1             1    2     1       0.8675363148E-05       2    1    1         0.4525924058E-03      0.8252075489E-03

    ------------------------------------------------
       NWT REQUIRED            3 OUTER ITERATIONS 
       AND A TOTAL OF          5 INNER ITERATIONS.
    ------------------------------------------------

 NO OUTPUT CONTROL FOR STRESS PERIOD   49   TIME STEP   20
 
 SOLVING FOR HEAD 
                                                   Max.-Head-Change                         Max.-Flux-Residual
  Residual-Control   Outer-Iter.   Inner-Iter.     Column Row Layer    Maximum-Head-Change  Column Row Layer    Maximum-Flux-Residual          L2-NORM 
          0                 1           2             1    2     1       0.1307081984E-02       2    1    1         0.6445677619E-01      0.1173677195E+00
          0                 2           2             1    2     1      -0.1271435079E-03       2    1    1        -0.6445683354E-02      0.1173009876E-01
          0                 3           1             1    2     1       0.8658001270E-05       2    1    1         0.4511979857E-03      0.8204271178E-03

    ------------------------------------------------
       NWT REQUIRED            3 OUTER ITERATIONS 
       AND A TOTAL OF          5 INNER ITERATIONS.
    ------------------------------------------------

 NO OUTPUT CONTROL FOR STRESS PERIOD   49   TIME STEP   21
 
 SOLVING FOR HEAD 
                                                   Max.-Head-Change                         Max.-Flux-Residual
  Residual-Control   Outer-Iter.   Inner-Iter.     Column Row Layer    Maximum-Head-Change  Column Row Layer    Maximum-Flux-Residual          L2-NORM 
          0                 1           2             1    2     1       0.1304428422E-02       2    1    1         0.6425862699E-01      0.1166971139E+00
          0                 2           2             1    2     1      -0.1268853878E-03       2    1    1        -0.6425868404E-02      0.1166349565E-01
          0                 3           1             1    2     1       0.8640424256E-05       2    1    1         0.4498109172E-03      0.8159935061E-03

    ------------------------------------------------
       NWT REQUIRED            3 OUTER ITERATIONS 
       AND A TOTAL OF          5 INNER ITERATIONS.
    ------------------------------------------------

 NO OUTPUT CONTROL FOR STRESS PERIOD   49   TIME STEP   22
 
 SOLVING FOR HEAD 
                                                   Max.-Head-Change                         Max.-Flux-Residual
  Residual-Control   Outer-Iter.   Inner-Iter.     Column Row Layer    Maximum-Head-Change  Column Row Layer    Maximum-Flux-Residual          L2-NORM 
          0                 1           2             1    2     1       0.1301831041E-02       2    1    1         0.6406268341E-01      0.1160459026E+00
          0                 2           2             1    2     1      -0.1266327332E-03       2    1    1        -0.6406274015E-02      0.1159883631E-01
          0                 3           1             1    2     1       0.8623219293E-05       2    1    1         0.4484393129E-03      0.8113510676E-03

    ------------------------------------------------
       NWT REQUIRED            3 OUTER ITERATIONS 
       AND A TOTAL OF          5 INNER ITERATIONS.
    ------------------------------------------------

 NO OUTPUT CONTROL FOR STRESS PERIOD   49   TIME STEP   23
 
 SOLVING FOR HEAD 
                                                   Max.-Head-Change                         Max.-Flux-Residual
  Residual-Control   Outer-Iter.   Inner-Iter.     Column Row Layer    Maximum-Head-Change  Column Row Layer    Maximum-Flux-Residual          L2-NORM 
          0                 1           2             1    2     1       0.1299245422E-02       2    1    1         0.6386661503E-01      0.1154048857E+00
          0                 2           2             1    2     1      -0.1263812226E-03       2    1    1        -0.6386667132E-02      0.1153546129E-01
          0                 3           1             1    2     1       0.8606091958E-05       2    1    1         0.4470668314E-03      0.8069501957E-03

    ------------------------------------------------
       NWT REQUIRED            3 OUTER ITERATIONS 
       AND A TOTAL OF          5 INNER ITERATIONS.
    ------------------------------------------------

 NO OUTPUT CONTROL FOR STRESS PERIOD   49   TIME STEP   24
 
 SOLVING FOR HEAD 
                                                   Max.-Head-Change                         Max.-Flux-Residual
  Residual-Control   Outer-Iter.   Inner-Iter.     Column Row Layer    Maximum-Head-Change  Column Row Layer    Maximum-Flux-Residual          L2-NORM 
          0                 1           2             1    2     1       0.1296627092E-02       2    1    1         0.6367158183E-01      0.1147793387E+00
          0                 2           2             1    2     1      -0.1261265303E-03       2    1    1        -0.6367163785E-02      0.1147300949E-01
          0                 3           1             1    2     1       0.8588749014E-05       2    1    1         0.4457015875E-03      0.8026352492E-03

    ------------------------------------------------
       NWT REQUIRED            3 OUTER ITERATIONS 
       AND A TOTAL OF          5 INNER ITERATIONS.
    ------------------------------------------------

 NO OUTPUT CONTROL FOR STRESS PERIOD   49   TIME STEP   25
 
 SOLVING FOR HEAD 
                                                   Max.-Head-Change                         Max.-Flux-Residual
  Residual-Control   Outer-Iter.   Inner-Iter.     Column Row Layer    Maximum-Head-Change  Column Row Layer    Maximum-Flux-Residual          L2-NORM 
          0                 1           2             1    2     1       0.1294064636E-02       2    1    1         0.6347756999E-01      0.1141647136E+00
          0                 2           2             1    2     1      -0.1258772723E-03       2    1    1        -0.6347762567E-02      0.1141190331E-01
          0                 3           1             1    2     1       0.8571775044E-05       2    1    1         0.4443435297E-03      0.7985030713E-03

    ------------------------------------------------
       NWT REQUIRED            3 OUTER ITERATIONS 
       AND A TOTAL OF          5 INNER ITERATIONS.
    ------------------------------------------------

 NO OUTPUT CONTROL FOR STRESS PERIOD   49   TIME STEP   26
 
 SOLVING FOR HEAD 
                                                   Max.-Head-Change                         Max.-Flux-Residual
  Residual-Control   Outer-Iter.   Inner-Iter.     Column Row Layer    Maximum-Head-Change  Column Row Layer    Maximum-Flux-Residual          L2-NORM 
          0                 1           2             4   13     1      -0.3831796698E-02       4   13    1        -0.2187546722E+00      0.5163587768E+00
          0                 2           2             4   13     1       0.3687914051E-03       4   13    1         0.2164659736E-01      0.5085529893E-01
          0                 3           1             4   13     1      -0.2474084850E-04       4   13    1        -0.1493000040E-02      0.3487393787E-02

    ------------------------------------------------
       NWT REQUIRED            3 OUTER ITERATIONS 
       AND A TOTAL OF          5 INNER ITERATIONS.
    ------------------------------------------------

 NO OUTPUT CONTROL FOR STRESS PERIOD   49   TIME STEP   27
 
 SOLVING FOR HEAD 
                                                   Max.-Head-Change                         Max.-Flux-Residual
  Residual-Control   Outer-Iter.   Inner-Iter.     Column Row Layer    Maximum-Head-Change  Column Row Layer    Maximum-Flux-Residual          L2-NORM 
          0                 1           2             1    2     1       0.1284982202E-02       2    1    1         0.6279987939E-01      0.1213733493E+00
          0                 2           2             1    2     1      -0.1249938000E-03       2    1    1        -0.6279993477E-02      0.1213385475E-01
          0                 3           1             1    2     1       0.8511613882E-05       2    1    1         0.4395996671E-03      0.8490380819E-03

    ------------------------------------------------
       NWT REQUIRED            3 OUTER ITERATIONS 
       AND A TOTAL OF          5 INNER ITERATIONS.
    ------------------------------------------------

 NO OUTPUT CONTROL FOR STRESS PERIOD   49   TIME STEP   28
 
 SOLVING FOR HEAD 
                                                   Max.-Head-Change                         Max.-Flux-Residual
  Residual-Control   Outer-Iter.   Inner-Iter.     Column Row Layer    Maximum-Head-Change  Column Row Layer    Maximum-Flux-Residual          L2-NORM 
          0                 1           2             1    2     1       0.1282267345E-02       2    1    1         0.6259446655E-01      0.1206644076E+00
          0                 2           2             1    2     1      -0.1247297177E-03       2    1    1        -0.6259452161E-02      0.1206310445E-01
          0                 3           1             1    2     1       0.8493630973E-05       2    1    1         0.4381617907E-03      0.8440901144E-03

    ------------------------------------------------
       NWT REQUIRED            3 OUTER ITERATIONS 
       AND A TOTAL OF          5 INNER ITERATIONS.
    ------------------------------------------------

 NO OUTPUT CONTROL FOR STRESS PERIOD   49   TIME STEP   29
 
 SOLVING FOR HEAD 
                                                   Max.-Head-Change                         Max.-Flux-Residual
  Residual-Control   Outer-Iter.   Inner-Iter.     Column Row Layer    Maximum-Head-Change  Column Row Layer    Maximum-Flux-Residual          L2-NORM 
          0                 1           2             1    2     1       0.1279520501E-02       2    1    1         0.6239015134E-01      0.1199637664E+00
          0                 2           2             1    2     1      -0.1244625244E-03       2    1    1        -0.6239020600E-02      0.1199323928E-01
          0                 3           1             1    2     1       0.8475436005E-05       2    1    1         0.4367315849E-03      0.8392981504E-03

    ------------------------------------------------
       NWT REQUIRED            3 OUTER ITERATIONS 
       AND A TOTAL OF          5 INNER ITERATIONS.
    ------------------------------------------------

 NO OUTPUT CONTROL FOR STRESS PERIOD   49   TIME STEP   30



 STREAM LISTING     PERIOD     49   STEP       30

 LAYER ROW COL. STREAM  RCH.  FLOW INTO     FLOW TO   FLOW OUT OF   OVRLND.     DIRECT     STREAM       STREAM     STREAM     STREAM   STREAMBED  STREAMBED
                SEG.NO.  NO.  STRM. RCH.    AQUIFER    STRM. RCH.    RUNOFF     PRECIP       ET          HEAD       DEPTH      WIDTH   CONDCTNC.   GRADIENT

   1    1    1     1     1    1.4250E+01  1.8169E-01   1.4068E+01  0.000E+00  0.000E+00  0.000E+00  1.09404E+03  9.953E-01  1.011E+01  4.547E-02  1.332E+00
   1    2    2     1     2    1.4068E+01  2.7999E-01   1.3788E+01  0.000E+00  0.000E+00  0.000E+00  1.08905E+03  9.906E-01  1.002E+01  7.016E-02  1.330E+00
   1    3    3     1     3    1.3788E+01  2.3745E-01   1.3551E+01  0.000E+00  0.000E+00  0.000E+00  1.08340E+03  9.852E-01  9.930E+00  5.958E-02  1.328E+00
   1    3    4     1     4    1.3551E+01  2.1755E-01   1.3333E+01  0.000E+00  0.000E+00  0.000E+00  1.07839E+03  9.805E-01  9.848E+00  5.465E-02  1.327E+00
   1    4    5     2     1    1.1333E+01  2.9214E-01   1.1041E+01  0.000E+00  0.000E+00  0.000E+00  1.07268E+03  7.454E-01  1.200E+01  7.800E-02  1.248E+00
   1    5    6     2     2    1.1041E+01  2.2410E-01   1.0817E+01  0.000E+00  0.000E+00  0.000E+00  1.06724E+03  7.350E-01  1.200E+01  6.000E-02  1.245E+00
   1    6    6     2     3    1.0817E+01  2.2356E-01   1.0594E+01  0.000E+00  0.000E+00  0.000E+00  1.06252E+03  7.259E-01  1.200E+01  6.000E-02  1.242E+00
   1    7    6     2     4    1.0594E+01  2.2301E-01   1.0371E+01  0.000E+00  0.000E+00  0.000E+00  1.05779E+03  7.168E-01  1.200E+01  6.000E-02  1.239E+00
   1    8    6     2     5    1.0371E+01  2.2246E-01   1.0148E+01  0.000E+00  0.000E+00  0.000E+00  1.05307E+03  7.076E-01  1.200E+01  6.000E-02  1.236E+00
   1    3    5     3     1    2.0000E+00  2.8252E-01   1.7175E+00  0.000E+00  0.000E+00  0.000E+00  1.07555E+03  1.909E+00  9.636E+00  7.227E-02  1.955E+00
   1    3    6     3     2    1.7175E+00  2.4905E-01   1.4684E+00  0.000E+00  0.000E+00  0.000E+00  1.07264E+03  1.727E+00  8.909E+00  6.682E-02  1.864E+00
   1    3    7     3     3    1.4684E+00  1.9718E-01   1.2712E+00  0.000E+00  0.000E+00  0.000E+00  1.06987E+03  1.555E+00  8.218E+00  5.547E-02  1.777E+00
   1    4    8     3     4    1.2712E+00  2.2567E-01   1.0456E+00  0.000E+00  0.000E+00  0.000E+00  1.06682E+03  1.364E+00  7.455E+00  6.709E-02  1.682E+00
   1    5    8     3     5    1.0456E+00  1.5790E-01   8.8768E-01  0.000E+00  0.000E+00  0.000E+00  1.06362E+03  1.164E+00  6.655E+00  4.991E-02  1.582E+00
   1    6    8     3     6    8.8768E-01  5.5980E-02   8.3170E-01  0.000E+00  0.000E+00  0.000E+00  1.06158E+03  1.036E+00  6.145E+00  1.844E-02  1.518E+00
   1    5   10     4     1    1.0000E+01  9.0919E-02   9.9091E+00  0.000E+00  0.000E+00  0.000E+00  1.07836E+03  6.368E-01  1.000E+01  2.500E-02  1.212E+00
   1    5    9     4     2    9.9091E+00  1.8158E-01   9.7275E+00  0.000E+00  0.000E+00  0.000E+00  1.07154E+03  6.315E-01  1.000E+01  5.000E-02  1.211E+00
   1    6    8     4     3    9.7275E+00  1.2689E-01   9.6006E+00  0.000E+00  0.000E+00  0.000E+00  1.06381E+03  6.256E-01  1.000E+01  3.500E-02  1.209E+00
   1    6    8     5     1    1.0432E+01  2.2686E-01   1.0205E+01  0.000E+00  0.000E+00  0.000E+00  1.05868E+03  6.790E-01  1.542E+01  6.166E-02  1.226E+00
   1    7    7     5     2    1.0205E+01  2.7894E-01   9.9265E+00  0.000E+00  0.000E+00  0.000E+00  1.05417E+03  6.732E-01  1.519E+01  7.594E-02  1.224E+00
   1    8    7     5     3    9.9265E+00  1.9221E-01   9.7343E+00  0.000E+00  0.000E+00  0.000E+00  1.04992E+03  6.676E-01  1.497E+01  5.241E-02  1.223E+00
   1    8    6     5     4    9.7343E+00  1.3577E-01   9.5985E+00  0.000E+00  0.000E+00  0.000E+00  1.04691E+03  6.637E-01  1.482E+01  3.706E-02  1.221E+00
   1    9    6     6     1    1.9747E+01  2.4336E-01   1.9503E+01  0.000E+00  0.000E+00  0.000E+00  1.04378E+03  1.056E+00  1.200E+01  6.000E-02  1.352E+00
   1   10    7     6     2    1.9503E+01  2.4289E-01   1.9260E+01  0.000E+00  0.000E+00  0.000E+00  1.03923E+03  1.048E+00  1.200E+01  6.000E-02  1.349E+00
   1   11    7     6     3    1.9260E+01  2.4241E-01   1.9018E+01  0.000E+00  0.000E+00  0.000E+00  1.03468E+03  1.040E+00  1.200E+01  6.000E-02  1.347E+00
   1   12    7     6     4    1.9018E+01  2.4194E-01   1.8776E+01  0.000E+00  0.000E+00  0.000E+00  1.03012E+03  1.032E+00  1.200E+01  6.000E-02  1.344E+00
   1   13    7     6     5    1.8776E+01 -5.3452E-02   1.8829E+01  0.000E+00  0.000E+00  0.000E+00  1.02694E+03  1.029E+00  1.200E+01  2.400E-01 -7.424E-02
   1   14    9     7     1    1.5000E+02  1.3316E+00   1.4867E+02  0.000E+00  0.000E+00  0.000E+00  1.03987E+03  2.288E+00  5.529E+01  5.593E-01  7.936E-01
   1   13    8     7     2    1.4867E+02  1.8069E+00   1.4686E+02  0.000E+00  0.000E+00  0.000E+00  1.03478E+03  2.279E+00  5.526E+01  6.148E-01  9.797E-01
   1   13    7     7     3    1.4686E+02  1.4124E+00   1.4545E+02  0.000E+00  0.000E+00  0.000E+00  1.02969E+03  2.271E+00  5.522E+01  5.585E-01  8.430E-01
   1   13    6     8     1    1.6428E+02  8.2722E-01   1.6345E+02  0.000E+00  0.000E+00  0.000E+00  1.02479E+03  2.912E+00  4.222E+01  4.302E-01  6.409E-01
   1   13    5     8     2    1.6345E+02  9.0162E-02   1.6336E+02  0.000E+00  0.000E+00  0.000E+00  1.01853E+03  2.909E+00  4.218E+01  4.298E-01  6.993E-02
   1   13    4     8     3    1.6336E+02 -2.7219E+00   1.6608E+02  0.000E+00  0.000E+00  0.000E+00  1.01229E+03  2.917E+00  4.230E+01  4.311E+00 -2.105E-01
   1   13    3     8     4    1.6608E+02 -3.7759E+00   1.6986E+02  0.000E+00  0.000E+00  0.000E+00  1.00606E+03  2.939E+00  4.261E+01  4.343E+00 -2.898E-01
   1   13    2     8     5    1.6986E+02 -2.6063E+00   1.7247E+02  0.000E+00  0.000E+00  0.000E+00  9.99835E+02  2.960E+00  4.292E+01  4.373E+00 -1.987E-01
   1   13    1     8     6    1.7247E+02 -1.9921E+00   1.7446E+02  0.000E+00  0.000E+00  0.000E+00  9.94850E+02  2.975E+00  4.313E+01  2.637E+00 -2.518E-01
   1    8    6     9     1    0.0000E+00  0.0000E+00   0.0000E+00  0.000E+00  0.000E+00  0.000E+00  1.07875E+03  0.000E+00  4.000E+00  0.000E+00  1.000E+00
   1    8    5     9     2    0.0000E+00  0.0000E+00   0.0000E+00  0.000E+00  0.000E+00  0.000E+00  1.07825E+03  0.000E+00  4.000E+00  0.000E+00  1.000E+00





UNSATURATED ZONE PACKAGE VOLUMETRIC BUDGET FOR  TIME STEP    30 STRESS PERIOD   49
  ------------------------------------------------------------------------------



     CUMULATIVE VOLUMES      L**3       RATES FOR THIS TIME STEP      L**3/T
     ------------------                 ------------------------

           IN:                                      IN:
           ---                                      ---
        INFILTRATION =   557324822.4495          INFILTRATION =           4.4075

          OUT:                                     OUT:
          ----                                     ----
              UZF ET =   408024504.7791                UZF ET =           0.7250
        UZF RECHARGE =     2053800.1856          UZF RECHARGE =       0.0000E+00

            IN - OUT =   147246517.4848              IN - OUT =           3.6825

          STORAGE:                                 STORAGE:
          --------                                 --------
      STORAGE CHANGE =   147248728.2184        STORAGE CHANGE =           3.6825

 PERCENT DISCREPANCY IS DIFFERENCE BETWEEN IN-OUT MINUS CHANGE IN STORAGE
 DIVIDED BY THE AVERAGE OF IN AND OUT TIMES 100

 PERCENT DISCREPANCY =          -0.00     PERCENT DISCREPANCY =           0.00






1
  VOLUMETRIC BUDGET FOR ENTIRE MODEL AT END OF TIME STEP   30, STRESS PERIOD  49
  ------------------------------------------------------------------------------

     CUMULATIVE VOLUMES      L**3       RATES FOR THIS TIME STEP      L**3/T
     ------------------                 ------------------------

           IN:                                      IN:
           ---                                      ---
               AG WELLS  =           0.0000                 AG WELLS  =           0.0000
        DIVERSION SEGMEN =      848802.5000          DIVERSION SEGMEN =           0.0000
    TS         GW IRRIGA =           0.0000      TS         GW IRRIGA =           0.0000
    TION         SW IRRI =           0.0000      TION         SW IRRI =           0.0000
    GATION      SYSTEM L =           0.0000      GATION      SYSTEM L =           0.0000
    OSSES GW      SYSTEM =           0.1856      OSSES GW      SYSTEM =           0.0000

                TOTAL IN =      848802.6875                  TOTAL IN =           0.0000

          OUT:                                     OUT:
          ----                                     ----
               AG WELLS  =           0.0000                 AG WELLS  =           0.0000
        DIVERSION SEGMEN =           0.0000          DIVERSION SEGMEN =           0.0000
    TS         GW IRRIGA =           0.0000      TS         GW IRRIGA =           0.0000
    TION         SW IRRI =      848819.6875      TION         SW IRRI =           0.0000
    GATION      SYSTEM L =           0.0000      GATION      SYSTEM L =           0.0000
    OSSES GW      SYSTEM =           0.0000      OSSES GW      SYSTEM =           0.0000

               TOTAL OUT =      848819.6875                 TOTAL OUT =           0.0000

                IN - OUT =         -17.0000                  IN - OUT =           0.0000

     PERCENT DISCREPANCY =          -0.00         PERCENT DISCREPANCY =           0.00



1
  VOLUMETRIC BUDGET FOR ENTIRE MODEL AT END OF TIME STEP   30, STRESS PERIOD  49
  ------------------------------------------------------------------------------

     CUMULATIVE VOLUMES      L**3       RATES FOR THIS TIME STEP      L**3/T
     ------------------                 ------------------------

           IN:                                      IN:
           ---                                      ---
             STORAGE     =    62172232.0000               STORAGE     =           0.4808
       CONSTANT HEAD     =           0.0000         CONSTANT HEAD     =           0.0000
     HEAD DEP BOUNDS     =    36078324.0000       HEAD DEP BOUNDS     =           0.2855
      STREAM LEAKAGE     =  1500505728.0000        STREAM LEAKAGE     =          10.9423
        UZF RECHARGE     =     2053800.1250          UZF RECHARGE     =           0.0000
               GW ET     =           0.0000                 GW ET     =           0.0000
     SURFACE LEAKAGE     =           0.0000       SURFACE LEAKAGE     =           0.0000
           AG WELLS      =           0.0000             AG WELLS      =           0.0000

                TOTAL IN =  1600810112.0000                  TOTAL IN =          11.7086

          OUT:                                     OUT:
          ----                                     ----
             STORAGE     =   179565456.0000               STORAGE     =           0.2698
       CONSTANT HEAD     =           0.0000         CONSTANT HEAD     =           0.0000
     HEAD DEP BOUNDS     =    36924136.0000       HEAD DEP BOUNDS     =           0.2890
      STREAM LEAKAGE     =  1364535936.0000        STREAM LEAKAGE     =          11.1497
        UZF RECHARGE     =           0.0000          UZF RECHARGE     =           0.0000
               GW ET     =    19807256.0000                 GW ET     =           0.0000
     SURFACE LEAKAGE     =           0.0000       SURFACE LEAKAGE     =           0.0000
           AG WELLS      =           0.0000             AG WELLS      =           0.0000

               TOTAL OUT =  1600832768.0000                 TOTAL OUT =          11.7086

                IN - OUT =      -22656.0000                  IN - OUT =       6.3896E-05

     PERCENT DISCREPANCY =          -0.00         PERCENT DISCREPANCY =           0.00






         TIME SUMMARY AT END OF TIME STEP   30 IN STRESS PERIOD   49
                    SECONDS     MINUTES      HOURS       DAYS        YEARS
                    -----------------------------------------------------------
   TIME STEP LENGTH  87667.      1461.1      24.352      1.0147     2.77799E-03
 STRESS PERIOD TIME 2.63000E+06  43833.      730.56      30.440     8.33397E-02
         TOTAL TIME 1.26325E+08 2.10542E+06  35090.      1462.1      4.0030    
1


 Run end date and time (yyyy/mm/dd hh:mm:ss): 2020/01/09 16:38:29
 Elapsed run time:  1 Minutes, 48.757 Seconds

