                                  MODFLOW-NWT-SWR1 
      U.S. GEOLOGICAL SURVEY MODULAR FINITE-DIFFERENCE GROUNDWATER-FLOW MODEL
                            VERSION 1.1.2, 9/15/2016
                    BASED ON MODFLOW-2005 VERSION 1.11.00 08/08/2013

 LIST FILE: .\sfr4test_single_line_options\sfrtest4.lst
                         UNIT   11

 OPENING .\sfr4test_single_line_options\sfrtest4.cbc
 FILE TYPE:DATA(BINARY)   UNIT    9   STATUS:REPLACE
 FORMAT:BINARY                 ACCESS:SEQUENTIAL          

 OPENING .\sfr4test_single_line_options\sfrtest4.dis
 FILE TYPE:DIS   UNIT   12   STATUS:OLD    
 FORMAT:FORMATTED              ACCESS:SEQUENTIAL          

 OPENING .\sfr4test_single_line_options\sfrtest4.bas
 FILE TYPE:BAS6   UNIT   13   STATUS:OLD    
 FORMAT:FORMATTED              ACCESS:SEQUENTIAL          

 OPENING .\sfr4test_single_line_options\sfrtest4.oc
 FILE TYPE:OC   UNIT   39   STATUS:OLD    
 FORMAT:FORMATTED              ACCESS:SEQUENTIAL          

 OPENING .\sfr4test_single_line_options\sfrtest4.fhd
 FILE TYPE:DATA   UNIT   37   STATUS:REPLACE
 FORMAT:FORMATTED              ACCESS:SEQUENTIAL          

 OPENING .\sfr4test_single_line_options\sfrtest4.fdn
 FILE TYPE:DATA   UNIT   38   STATUS:REPLACE
 FORMAT:FORMATTED              ACCESS:SEQUENTIAL          

 OPENING .\sfr4test_single_line_options\sfrtest4.pcg
 FILE TYPE:PCG   UNIT   18   STATUS:OLD    
 FORMAT:FORMATTED              ACCESS:SEQUENTIAL          

 OPENING .\sfr4test_single_line_options\sfrtest4.lpf
 FILE TYPE:LPF   UNIT   14   STATUS:OLD    
 FORMAT:FORMATTED              ACCESS:SEQUENTIAL          

 OPENING .\sfr4test_single_line_options\sfrtest4.chd
 FILE TYPE:CHD   UNIT   17   STATUS:OLD    
 FORMAT:FORMATTED              ACCESS:SEQUENTIAL          

 OPENING .\sfr4test_single_line_options\sfrtest4.sfr
 FILE TYPE:SFR   UNIT   29   STATUS:OLD    
 FORMAT:FORMATTED              ACCESS:SEQUENTIAL          

 BAS -- BASIC PACKAGE, VERSION 1.1.2, 9/15/2016 INPUT READ FROM UNIT   13
 
 MODFLOW was compiled using mixed precision
 Precision of REAL variables:           6
 Precision of DOUBLE PRECISION variables:          15

 DISCRETIZATION INPUT DATA READ FROM UNIT   12
 # Discretization File created on 1/23/2017 by ModelMuse version 3.8.1.25.
 # Upper left corner: (0, 0)
 # Lower left corner: (0, -1000)
 # Upper right corner: (1000, 0)
 # Lower right corner: (1000, -1000)
 # Grid angle (in degrees counterclockwise): 0
    3 LAYERS        10 ROWS        10 COLUMNS
    4 STRESS PERIOD(S) IN SIMULATION
 MODEL TIME UNIT IS SECONDS
 MODEL LENGTH UNIT IS METERS
  Confining bed flag for each layer:
   0   0   0

                     DELR =   100.000    

                     DELC =   100.000    

 TOP ELEVATION OF LAYER 1 =   0.00000    

   MODEL LAYER BOTTOM EL. =  -10.0000     FOR LAYER   1

   MODEL LAYER BOTTOM EL. =  -20.0000     FOR LAYER   2

   MODEL LAYER BOTTOM EL. =  -30.0000     FOR LAYER   3


 STRESS PERIOD     LENGTH       TIME STEPS     MULTIPLIER FOR DELT    SS FLAG
 ----------------------------------------------------------------------------
        1         1.000000          1                    1.000         SS
        2        0.2500000          1                    1.000         TR
        3        0.2500000          1                    1.000         TR
        4        0.5000000          1                    1.000         TR

 COMBINED STEADY-STATE AND TRANSIENT SIMULATION



 
 # Basic Package file created on 1/23/2017 by ModelMuse version 3.8.1.25.        
 THE FREE FORMAT OPTION HAS BEEN SELECTED
 THE PRINTTIME OPTION HAS BEEN SELECTED
 CALCULATE FLOW BETWEEN ADJACENT CONSTANT-HEAD CELLS

           BOUNDARY ARRAY =              1 FOR LAYER   1

           BOUNDARY ARRAY =              1 FOR LAYER   2

           BOUNDARY ARRAY =              1 FOR LAYER   3

 AQUIFER HEAD WILL BE SET TO -1.00000E+20 AT ALL NO-FLOW NODES (IBOUND=0).

             INITIAL HEAD =   0.00000     FOR LAYER   1

             INITIAL HEAD =   0.00000     FOR LAYER   2

             INITIAL HEAD =   0.00000     FOR LAYER   3
 # Output Control file created on 1/23/2017 by ModelMuse version 3.8.1.25.

 OUTPUT CONTROL IS SPECIFIED ONLY AT TIME STEPS FOR WHICH OUTPUT IS DESIRED
 HEADS WILL BE SAVED WITH FORMAT: (10(1X1PE13.5))     
 SAVED HEADS WILL BE LABELED
 DRAWDOWN WILL BE SAVED WITH FORMAT: (10(1X1PE13.5))     
 SAVED DRAWDOWN WILL BE LABELED
 COMPACT CELL-BY-CELL BUDGET FILES WILL BE WRITTEN
 AUXILIARY DATA WILL BE SAVED IN CELL-BY-CELL BUDGET FILES
 HEAD PRINT FORMAT CODE IS   0    DRAWDOWN PRINT FORMAT CODE IS   0
 HEADS WILL BE SAVED ON UNIT   37    DRAWDOWNS WILL BE SAVED ON UNIT   38

 LPF -- LAYER-PROPERTY FLOW PACKAGE, VERSION 7, 5/2/2005
         INPUT READ FROM UNIT   14
 # LPF: Layer Property Flow package file created on 1/23/2017 by ModelMuse version 3.8.1.25.
 CELL-BY-CELL FLOWS WILL BE SAVED ON UNIT    9
 HEAD AT CELLS THAT CONVERT TO DRY= -2.00000E+20
 No named parameters

   LAYER FLAGS:
 LAYER       LAYTYP        LAYAVG         CHANI        LAYVKA        LAYWET
 ---------------------------------------------------------------------------
    1             1             0    -1.000E+00             0             0
    2             0             0    -1.000E+00             0             0
    3             0             0    -1.000E+00             0             0

   INTERPRETATION OF LAYER FLAGS:
                        INTERBLOCK     HORIZONTAL    DATA IN
         LAYER TYPE   TRANSMISSIVITY   ANISOTROPY   ARRAY VKA   WETTABILITY
 LAYER      (LAYTYP)      (LAYAVG)       (CHANI)      (LAYVKA)      (LAYWET)
 ---------------------------------------------------------------------------
    1   CONVERTIBLE      HARMONIC      VARIABLE    VERTICAL K  NON-WETTABLE
    2      CONFINED      HARMONIC      VARIABLE    VERTICAL K  NON-WETTABLE
    3      CONFINED      HARMONIC      VARIABLE    VERTICAL K  NON-WETTABLE

 WETTING CAPABILITY IS NOT ACTIVE IN ANY LAYER

    HYD. COND. ALONG ROWS =   100.000     FOR LAYER   1

   HORIZ. ANI. (COL./ROW) =   1.00000     FOR LAYER   1

      VERTICAL HYD. COND. =   1.00000     FOR LAYER   1

         SPECIFIC STORAGE =  1.000000E-05 FOR LAYER   1

           SPECIFIC YIELD =  0.200000     FOR LAYER   1

    HYD. COND. ALONG ROWS =   100.000     FOR LAYER   2

   HORIZ. ANI. (COL./ROW) =   1.00000     FOR LAYER   2

      VERTICAL HYD. COND. =   1.00000     FOR LAYER   2

         SPECIFIC STORAGE =  1.000000E-05 FOR LAYER   2

    HYD. COND. ALONG ROWS =   100.000     FOR LAYER   3

   HORIZ. ANI. (COL./ROW) =   1.00000     FOR LAYER   3

      VERTICAL HYD. COND. =   1.00000     FOR LAYER   3

         SPECIFIC STORAGE =  1.000000E-05 FOR LAYER   3

 CHD -- TIME-VARIANT SPECIFIED-HEAD OPTION, VERSION 7, 5/2/2005
 INPUT READ FROM UNIT   17
 # CHD: Time-Variant Specified-Head package file created on 1/23/2017 by ModelMuse version 3.8.1.25.
 No named parameters
 MAXIMUM OF      2 TIME-VARIANT SPECIFIED-HEAD CELLS AT ONE TIME
 AUXILIARY CHD VARIABLE: IFACE           


     0 TIME-VARIANT SPECIFIED-HEAD PARAMETERS

 SFR7 -- STREAMFLOW ROUTING PACKAGE, VERSION 1.0.5, 2012-04-05
         INPUT READ FROM UNIT  29
 # SFR: Stream-Flow Routing package file created on 1/23/2017 by ModelMuse version 3.8.1.25.
 No named parameters

 
 TRANSIENT ROUTING IN STREAMS 
IS ACTIVE
 

 END PROCESSING SFR2 OPTIONS
 IFACE values will be read from reach records


 NUMBER OF STREAM REACHES IS   12

 NUMBER OF STREAM SEGMENTS IS    2

 NUMBER OF STREAM PARAMETERS IS    0

 NUMBER OF STREAM SEGMENTS DEFINED USING PARAMETERS IS              0

 MAXIMUM ERROR FOR STREAM LEAKAGE RATES IS  1.00E-04

 CONSTANT FOR MANNINGS EQUATION IS  1.0000E+00





 USING DATA INPUT MODIFIED FROM ORIGINAL SFR PROGRAM FOR FARM PACKAGE

 FLOW TO AND FROM GROUND WATER FOR EACH STREAM REACH WILL BE SAVED ON UNIT    9
 STREAM OUTPUT WILL BE WRITTEN TO FILE ON UNIT   11
 TRANSIENT STREAMFLOW ROUTING IS ACTIVE 


   STREAM NETWORK DESCRIPTION: 

   LAYER    ROW    COL   SEGMENT   REACH     LENGTH     STREAMBED     STREAMBED   STREAMBED     STREAMBED
                          NUMBER   NUMBER    IN CELL    TOP ELEV.       SLOPE     THICKNESS   HYDR. CONDUCT.   IFACE
   -----------------------------------------------------------------------------------------------------------------
       1      6      2       1        1    9.2570E+01   2.9000E+01   1.0000E-03   1.0000E+00   1.0000E-03       0
       1      5      2       1        2    4.2457E+01   2.9000E+01   1.0000E-03   1.0000E+00   1.0000E-03       0
       1      5      3       1        3    9.7049E+01   2.9000E+01   1.0000E-03   1.0000E+00   1.0000E-03       0
       1      4      3       1        4    4.6369E+01   2.9000E+01   1.0000E-03   1.0000E+00   1.0000E-03       0
       1      4      4       1        5    9.3138E+01   2.9000E+01   1.0000E-03   1.0000E+00   1.0000E-03       0
       1      3      4       1        6    5.0280E+01   2.9000E+01   1.0000E-03   1.0000E+00   1.0000E-03       0
       1      3      5       1        7    8.4388E+01   2.9000E+01   1.0000E-03   1.0000E+00   1.0000E-03       0
       1      3      7       2        1    4.1454E+01   2.9000E+01   1.0000E-03   1.0000E+00   1.0000E+02       0
       1      3      8       2        2    5.1920E+01   2.8787E+01   1.0000E-03   1.0000E+00   1.0000E+02       0
       1      4      8       2        3    1.1518E+02   2.8524E+01   1.0000E-03   1.0000E+00   1.0000E+02       0
       1      5      8       2        4    3.4461E+01   2.8288E+01   1.0000E-03   1.0000E+00   1.0000E+02       0
       1      5      9       2        5    7.4089E+01   2.8000E+01   1.0000E-03   1.0000E+00   1.0000E+02       0




 PCG -- CONJUGATE-GRADIENT SOLUTION PACKAGE, VERSION 7, 5/2/2005
 # PCG: Preconditioned Conjugate Gradient package file created on 1/23/2017 by ModelMuse version 3.8.1.25.
 MAXIMUM OF     20 CALLS OF SOLUTION ROUTINE
 MAXIMUM OF     30 INTERNAL ITERATIONS PER CALL TO SOLUTION ROUTINE
 MATRIX PRECONDITIONING TYPE :    1



                                    SOLUTION BY THE CONJUGATE-GRADIENT METHOD
                                   -------------------------------------------
                    MAXIMUM NUMBER OF CALLS TO PCG ROUTINE =       20
                        MAXIMUM ITERATIONS PER CALL TO PCG =       30
                               MATRIX PRECONDITIONING TYPE =        1
        RELAXATION FACTOR (ONLY USED WITH PRECOND. TYPE 1) =    0.10000E+01
 PARAMETER OF POLYNOMIAL PRECOND. = 2 (2) OR IS CALCULATED :        1
                         HEAD CHANGE CRITERION FOR CLOSURE =    0.10000E-02
                     RESIDUAL CHANGE CRITERION FOR CLOSURE =    0.10000E+04
            PCG HEAD AND RESIDUAL CHANGE PRINTOUT INTERVAL =        1
     PRINTING FROM SOLVER IS LIMITED(1) OR SUPPRESSED (>1) =        0
                            STEADY-STATE DAMPING PARAMETER =    0.10000E+01
                               TRANSIENT DAMPING PARAMETER =    0.10000E+01
1
                            STRESS PERIOD NO.    1, LENGTH =   1.000000    
                            -----------------------------------------------

                              NUMBER OF TIME STEPS =     1

                               MULTIPLIER FOR DELT =     1.000

                            INITIAL TIME STEP SIZE =   1.000000    

 CHD NO.   LAYER   ROW   COL    START HEAD        END HEAD         IFACE           
 ----------------------------------------------------------------------------------
      1      1      1      1       29.00           29.00           0.000    
      2      1     10     10       30.00           30.00           0.000    


      2 TIME-VARIANT SPECIFIED-HEAD CELLS



 CLASSIFICATION & COUNT OF STREAM SEGMENTS BASED ON SOURCE OF INFLOW:

                HEADWATER     DIVERSION     RECEIVES TRIBUTARY FLOW
                ---------     ---------     -----------------------
                     1              0               1



                    INPUT DATA FOR EACH STREAM SEGMENT
 ---------------------------------------------------------------------------------------------

 SEGMENT    SEG.     INFLOW   OVERLAND   STREAM    STREAM   ICALC  OUTFLOW  DIVERSION PRIORITY
    NO.    LENGTH     RATE     RUNOFF      ET       PPT.    METH.  TO SEG.  FROM SEG.    NO.

      1  5.062E+02 0.000E+00 0.000E+00 0.000E+00 0.000E+00    3        2        0        0
      2  3.171E+02 0.000E+00 0.000E+00 0.000E+00 0.000E+00    3        0        0        0


         STREAMBED PROPERTIES AND STREAM DIMENSIONS

 SEGMENT     WIDTH OF STREAM     DEPTH OF STREAM    STREAM ROUGHNESS
    No.     UPPER     LOWER     UPPER     LOWER     CHANNEL      BANK


 STREAMFLOW RELATION WITH DEPTH IS BASED ON EQUATION Q = CDPTH*(DEPTH)**FDPTH
 STREAMFLOW RELATION WITH WIDTH IS BASED ON EQUATION Q = AWDTH*(WIDTH)**BWDTH

 SEGMENT NO.      CDPTH     FDPTH    AWDTH     BWDTH

          1 1.000E+00 1.000E+00 1.000E+00 1.000E+00
          2 1.000E-04 1.010E+00 1.000E-05 1.010E+00



 
 SOLVING FOR HEAD 


     2 CALLS TO PCG ROUTINE FOR TIME STEP     1 IN STRESS PERIOD    1
    14 TOTAL ITERATIONS

 MAXIMUM HEAD CHANGE FOR EACH ITERATION (1 INDICATES THE FIRST INNER ITERATION):

    HEAD CHANGE    HEAD CHANGE    HEAD CHANGE    HEAD CHANGE    HEAD CHANGE 
   LAYER,ROW,COL  LAYER,ROW,COL  LAYER,ROW,COL  LAYER,ROW,COL  LAYER,ROW,COL
 ---------------------------------------------------------------------------
  1   34.45      0   8.507      0  -3.130      0  -2.419      0 -0.8891    
   (  2, 10,  9)  (  3,  1, 10)  (  3, 10,  1)  (  2,  9, 10)  (  3, 10,  7)
  0 -0.2974      0  0.1735      0 -0.8720E-01  0 -0.4064E-01  0 -0.2257E-01
   (  3,  8, 10)  (  1,  4, 10)  (  2,  5, 10)  (  3,  9,  9)  (  3,  9,  9)
  0  0.3666E-02  0  0.1592E-02  0 -0.6136E-03  1  0.3362E-03
   (  3,  4,  1)  (  3,  3,  3)  (  2,  9,  9)  (  2, 10,  1)

 MAXIMUM RESIDUAL FOR EACH ITERATION (1 INDICATES THE FIRST INNER ITERATION):

    RESIDUAL       RESIDUAL       RESIDUAL       RESIDUAL       RESIDUAL    
   LAYER,ROW,COL  LAYER,ROW,COL  LAYER,ROW,COL  LAYER,ROW,COL  LAYER,ROW,COL
 ---------------------------------------------------------------------------
  1  0.2132E+05  0  0.1622E+05  0  0.1196E+05  0  -3876.      0  -2143.    
   (  2,  9, 10)  (  2,  9, 10)  (  2,  9, 10)  (  2,  9,  9)  (  2,  9,  9)
  0  -824.2      0   470.0      0   257.1      0   97.13      0  -24.59    
   (  2,  9,  9)  (  3,  9,  9)  (  3,  9,  9)  (  3,  9,  9)  (  3,  8,  9)
  0  -9.291      0   3.252      0   1.019      1  0.6038    
   (  3,  8,  9)  (  2,  9,  9)  (  1,  9, 10)  (  1,  9, 10)



 OUTPUT CONTROL FOR STRESS PERIOD    1   TIME STEP    1
    SAVE HEAD FOR ALL LAYERS
    SAVE DRAWDOWN FOR ALL LAYERS
    SAVE BUDGET
    PRINT BUDGET
 UBDSV2 SAVING "   CONSTANT HEAD" ON UNIT   9 AT TIME STEP     1, STRESS PERIOD   1
 UBDSV1 SAVING "FLOW RIGHT FACE " ON UNIT   9 AT TIME STEP     1, STRESS PERIOD   1
 UBDSV1 SAVING "FLOW FRONT FACE " ON UNIT   9 AT TIME STEP     1, STRESS PERIOD   1
 UBDSV1 SAVING "FLOW LOWER FACE " ON UNIT   9 AT TIME STEP     1, STRESS PERIOD   1
 UBDSV4 SAVING "  STREAM LEAKAGE" ON UNIT   9 AT TIME STEP     1, STRESS PERIOD   1



 STREAM LISTING     PERIOD      1   STEP        1

 LAYER ROW COL. STREAM  RCH.  FLOW INTO     FLOW TO   FLOW OUT OF   OVRLND.     DIRECT     STREAM       STREAM     STREAM     STREAM   STREAMBED  STREAMBED
                SEG.NO.  NO.  STRM. RCH.    AQUIFER    STRM. RCH.    RUNOFF     PRECIP       ET          HEAD       DEPTH      WIDTH   CONDCTNC.   GRADIENT

   1    6    2     1     1    0.0000E+00 -2.5865E-06   2.5865E-06  0.000E+00  0.000E+00  0.000E+00  2.90001E+01  6.131E-05  6.131E-05  5.675E-06 -4.558E-01
   1    5    2     1     2    2.5865E-06 -9.6029E-07   3.5467E-06  0.000E+00  0.000E+00  0.000E+00  2.90001E+01  5.255E-05  5.255E-05  2.231E-06 -4.304E-01
   1    5    3     1     3    3.5467E-06 -2.3431E-06   5.8898E-06  0.000E+00  0.000E+00  0.000E+00  2.90001E+01  5.429E-05  5.429E-05  5.269E-06 -4.447E-01
   1    4    3     1     4    5.8898E-06 -7.8054E-08   5.9679E-06  0.000E+00  0.000E+00  0.000E+00  2.90000E+01  4.025E-06  4.025E-06  1.866E-07 -4.182E-01
   1    4    4     1     5    5.9679E-06 -4.4106E-06   1.0379E-05  0.000E+00  0.000E+00  0.000E+00  2.90001E+01  1.075E-04  1.075E-04  1.002E-05 -4.403E-01
   1    3    4     1     6    1.0379E-05 -1.3258E-07   1.0511E-05  0.000E+00  0.000E+00  0.000E+00  2.90000E+01  6.305E-06  6.305E-06  3.170E-07 -4.182E-01
   1    3    5     1     7    1.0511E-05 -2.5661E-07   1.0768E-05  0.000E+00  0.000E+00  0.000E+00  2.90000E+01  6.838E-06  6.838E-06  5.771E-07 -4.447E-01
   1    3    7     2     1    1.0768E-05 -1.1933E-02   1.1943E-02  0.000E+00  0.000E+00  0.000E+00  2.90001E+01  5.928E-05  5.928E-06  2.458E-02 -4.855E-01
   1    3    8     2     2    1.1943E-02 -3.2169E-02   4.4112E-02  0.000E+00  0.000E+00  0.000E+00  2.87875E+01  8.697E-05  8.697E-06  4.516E-02 -7.124E-01
   1    4    8     2     3    4.4112E-02 -6.8925E-02   1.1304E-01  0.000E+00  0.000E+00  0.000E+00  2.85240E+01  6.044E-05  6.044E-06  6.961E-02 -9.902E-01
   1    5    8     2     4    1.1304E-01 -3.2580E-02   1.4562E-01  0.000E+00  0.000E+00  0.000E+00  2.82881E+01  7.597E-05  7.597E-06  2.618E-02 -1.245E+00
   1    5    9     2     5    1.4562E-01 -1.0781E-01   2.5343E-01  0.000E+00  0.000E+00  0.000E+00  2.80001E+01  9.425E-05  9.425E-06  6.983E-02 -1.544E+00




 HEAD WILL BE SAVED ON UNIT   37 AT END OF TIME STEP    1, STRESS PERIOD    1

 DRAWDOWN WILL BE SAVED ON UNIT   38 AT END OF TIME STEP    1, STRESS PERIOD    1
1
  VOLUMETRIC BUDGET FOR ENTIRE MODEL AT END OF TIME STEP    1, STRESS PERIOD   1
  ------------------------------------------------------------------------------

     CUMULATIVE VOLUMES      L**3       RATES FOR THIS TIME STEP      L**3/T
     ------------------                 ------------------------

           IN:                                      IN:
           ---                                      ---
             STORAGE =           0.0000               STORAGE =           0.0000
       CONSTANT HEAD =         668.0181         CONSTANT HEAD =         668.0181
      STREAM LEAKAGE =           0.0000        STREAM LEAKAGE =           0.0000

            TOTAL IN =         668.0181              TOTAL IN =         668.0181

          OUT:                                     OUT:
          ----                                     ----
             STORAGE =           0.0000               STORAGE =           0.0000
       CONSTANT HEAD =         667.8752         CONSTANT HEAD =         667.8752
      STREAM LEAKAGE =           0.2534        STREAM LEAKAGE =           0.2534

           TOTAL OUT =         668.1286             TOTAL OUT =         668.1286

            IN - OUT =          -0.1105              IN - OUT =          -0.1105

 PERCENT DISCREPANCY =          -0.02     PERCENT DISCREPANCY =          -0.02






         TIME SUMMARY AT END OF TIME STEP    1 IN STRESS PERIOD    1
                    SECONDS     MINUTES      HOURS       DAYS        YEARS
                    -----------------------------------------------------------
   TIME STEP LENGTH  1.0000     1.66667E-02 2.77778E-04 1.15741E-05 3.16881E-08
 STRESS PERIOD TIME  1.0000     1.66667E-02 2.77778E-04 1.15741E-05 3.16881E-08
         TOTAL TIME  1.0000     1.66667E-02 2.77778E-04 1.15741E-05 3.16881E-08
1
1
                            STRESS PERIOD NO.    2, LENGTH =  0.2500000    
                            -----------------------------------------------

                              NUMBER OF TIME STEPS =     1

                               MULTIPLIER FOR DELT =     1.000

                            INITIAL TIME STEP SIZE =  0.2500000    

 REUSING NON-PARAMETER SPECIFIED-HEAD DATA FROM LAST STRESS PERIOD


      2 TIME-VARIANT SPECIFIED-HEAD CELLS



 CLASSIFICATION & COUNT OF STREAM SEGMENTS BASED ON SOURCE OF INFLOW:

                HEADWATER     DIVERSION     RECEIVES TRIBUTARY FLOW
                ---------     ---------     -----------------------
                     1              0               1



                    INPUT DATA FOR EACH STREAM SEGMENT
 ---------------------------------------------------------------------------------------------

 SEGMENT    SEG.     INFLOW   OVERLAND   STREAM    STREAM   ICALC  OUTFLOW  DIVERSION PRIORITY
    NO.    LENGTH     RATE     RUNOFF      ET       PPT.    METH.  TO SEG.  FROM SEG.    NO.

      1  5.062E+02 0.000E+00 0.000E+00 0.000E+00 0.000E+00    1        2        0        0
      2  3.171E+02 0.000E+00 0.000E+00 0.000E+00 0.000E+00    3        0        0        0


         STREAMBED PROPERTIES AND STREAM DIMENSIONS

 SEGMENT     WIDTH OF STREAM     DEPTH OF STREAM    STREAM ROUGHNESS
    No.     UPPER     LOWER     UPPER     LOWER     CHANNEL      BANK

     1    1.000E+01 1.000E+01                      3.500E-07

 STREAMFLOW RELATION WITH DEPTH IS BASED ON EQUATION Q = CDPTH*(DEPTH)**FDPTH
 STREAMFLOW RELATION WITH WIDTH IS BASED ON EQUATION Q = AWDTH*(WIDTH)**BWDTH

 SEGMENT NO.      CDPTH     FDPTH    AWDTH     BWDTH

          2 1.000E-04 1.010E+00 1.000E-05 1.010E+00



 
 SOLVING FOR HEAD 


     1 CALLS TO PCG ROUTINE FOR TIME STEP     1 IN STRESS PERIOD    2
     1 TOTAL ITERATIONS

 MAXIMUM HEAD CHANGE FOR EACH ITERATION (1 INDICATES THE FIRST INNER ITERATION):

    HEAD CHANGE    HEAD CHANGE    HEAD CHANGE    HEAD CHANGE    HEAD CHANGE 
   LAYER,ROW,COL  LAYER,ROW,COL  LAYER,ROW,COL  LAYER,ROW,COL  LAYER,ROW,COL
 ---------------------------------------------------------------------------
  1 -0.5061E-03
   (  3, 10,  1)

 MAXIMUM RESIDUAL FOR EACH ITERATION (1 INDICATES THE FIRST INNER ITERATION):

    RESIDUAL       RESIDUAL       RESIDUAL       RESIDUAL       RESIDUAL    
   LAYER,ROW,COL  LAYER,ROW,COL  LAYER,ROW,COL  LAYER,ROW,COL  LAYER,ROW,COL
 ---------------------------------------------------------------------------
  1  0.5096    
   (  1, 10,  9)



 OUTPUT CONTROL FOR STRESS PERIOD    2   TIME STEP    1
    SAVE HEAD FOR ALL LAYERS
    SAVE DRAWDOWN FOR ALL LAYERS
    SAVE BUDGET
    PRINT BUDGET
 UBDSV1 SAVING "         STORAGE" ON UNIT   9 AT TIME STEP     1, STRESS PERIOD   2
 UBDSV2 SAVING "   CONSTANT HEAD" ON UNIT   9 AT TIME STEP     1, STRESS PERIOD   2
 UBDSV1 SAVING "FLOW RIGHT FACE " ON UNIT   9 AT TIME STEP     1, STRESS PERIOD   2
 UBDSV1 SAVING "FLOW FRONT FACE " ON UNIT   9 AT TIME STEP     1, STRESS PERIOD   2
 UBDSV1 SAVING "FLOW LOWER FACE " ON UNIT   9 AT TIME STEP     1, STRESS PERIOD   2
 UBDSV4 SAVING "  STREAM LEAKAGE" ON UNIT   9 AT TIME STEP     1, STRESS PERIOD   2



 STREAM LISTING     PERIOD      2   STEP        1

 LAYER ROW COL. STREAM  RCH.  FLOW INTO     FLOW TO   FLOW OUT OF   OVRLND.     DIRECT     STREAM       STREAM     STREAM     STREAM   STREAMBED  STREAMBED
                SEG.NO.  NO.  STRM. RCH.    AQUIFER    STRM. RCH.    RUNOFF     PRECIP       ET          HEAD       DEPTH      WIDTH   CONDCTNC.   GRADIENT

   1    6    2     1     1    0.0000E+00 -4.2154E-01   1.5524E-02  0.000E+00  0.000E+00  0.000E+00  2.90002E+01  1.521E-04  1.000E+01  9.257E-01 -4.554E-01
   1    5    2     1     2    1.5524E-02 -1.8262E-01   0.0000E+00  0.000E+00  0.000E+00  0.000E+00  2.90002E+01  1.295E-04  1.000E+01  4.246E-01 -4.301E-01
   1    5    3     1     3    0.0000E+00 -4.3127E-01   1.4960E-02  0.000E+00  0.000E+00  0.000E+00  2.90002E+01  1.523E-04  1.000E+01  9.705E-01 -4.444E-01
   1    4    3     1     4    1.4960E-02 -1.9380E-01   0.0000E+00  0.000E+00  0.000E+00  0.000E+00  2.90002E+01  1.287E-04  1.000E+01  4.637E-01 -4.180E-01
   1    4    4     1     5    0.0000E+00 -4.0996E-01   1.4695E-02  0.000E+00  0.000E+00  0.000E+00  2.90002E+01  1.497E-04  1.000E+01  9.314E-01 -4.402E-01
   1    3    4     1     6    1.4695E-02 -2.1016E-01   0.0000E+00  0.000E+00  0.000E+00  0.000E+00  2.90002E+01  1.303E-04  1.000E+01  5.028E-01 -4.180E-01
   1    3    5     1     7    0.0000E+00 -3.7506E-01   1.4838E-02  0.000E+00  0.000E+00  0.000E+00  2.90002E+01  1.469E-04  1.000E+01  8.439E-01 -4.444E-01
   1    3    7     2     1    1.4838E-02 -2.6723E-03   1.7510E-02  0.000E+00  0.000E+00  0.000E+00  2.90000E+01  5.928E-05  2.283E-06  5.505E-03 -4.855E-01
   1    3    8     2     2    1.7510E-02 -6.3179E-03   2.3828E-02  0.000E+00  0.000E+00  0.000E+00  2.87874E+01  8.697E-05  2.346E-06  8.870E-03 -7.123E-01
   1    4    8     2     3    2.3828E-02 -1.3784E-01   1.6167E-01  0.000E+00  0.000E+00  0.000E+00  2.85240E+01  6.044E-05  3.722E-06  1.392E-01 -9.901E-01
   1    5    8     2     4    1.6167E-01 -1.0918E-02   1.7259E-01  0.000E+00  0.000E+00  0.000E+00  2.82880E+01  7.597E-05  3.831E-06  8.773E-03 -1.244E+00
   1    5    9     2     5    1.7259E-01 -1.0780E-01   2.8039E-01  0.000E+00  0.000E+00  0.000E+00  2.80001E+01  9.424E-05  4.911E-06  6.982E-02 -1.544E+00
   1    6    2     1     1    0.0000E+00 -4.2154E-01   4.6220E-02  0.000E+00  0.000E+00  0.000E+00  2.90000E+01  1.521E-04  1.000E+01  9.257E-01 -4.554E-01
   1    5    2     1     2    4.6220E-02 -1.8261E-01   2.0135E-03  0.000E+00  0.000E+00  0.000E+00  2.90000E+01  1.355E-04  1.000E+01  4.246E-01 -4.301E-01
   1    5    3     1     3    2.0135E-03 -4.3127E-01   3.4717E-02  0.000E+00  0.000E+00  0.000E+00  2.90000E+01  1.527E-04  1.000E+01  9.705E-01 -4.444E-01
   1    4    3     1     4    3.4717E-02 -1.9380E-01   4.2545E-03  0.000E+00  0.000E+00  0.000E+00  2.90000E+01  1.326E-04  1.000E+01  4.637E-01 -4.179E-01
   1    4    4     1     5    4.2545E-03 -4.0996E-01   2.8869E-02  0.000E+00  0.000E+00  0.000E+00  2.90000E+01  1.506E-04  1.000E+01  9.314E-01 -4.402E-01
   1    3    4     1     6    2.8869E-02 -2.1016E-01   6.1311E-03  0.000E+00  0.000E+00  0.000E+00  2.90000E+01  1.331E-04  1.000E+01  5.028E-01 -4.180E-01
   1    3    5     1     7    6.1311E-03 -3.7506E-01   2.5928E-02  0.000E+00  0.000E+00  0.000E+00  2.90000E+01  1.482E-04  1.000E+01  8.439E-01 -4.444E-01
   1    3    7     2     1    2.5928E-02 -2.6723E-03   2.8600E-02  0.000E+00  0.000E+00  0.000E+00  2.90000E+01  5.928E-05  2.283E-06  5.505E-03 -4.855E-01
   1    3    8     2     2    2.8600E-02 -6.3179E-03   3.4918E-02  0.000E+00  0.000E+00  0.000E+00  2.87874E+01  8.697E-05  2.346E-06  8.870E-03 -7.123E-01
   1    4    8     2     3    3.4918E-02 -1.3784E-01   1.7276E-01  0.000E+00  0.000E+00  0.000E+00  2.85239E+01  6.044E-05  3.722E-06  1.392E-01 -9.901E-01
   1    5    8     2     4    1.7276E-01 -1.0918E-02   1.8368E-01  0.000E+00  0.000E+00  0.000E+00  2.82880E+01  7.597E-05  3.831E-06  8.773E-03 -1.244E+00
   1    5    9     2     5    1.8368E-01 -1.0780E-01   2.9148E-01  0.000E+00  0.000E+00  0.000E+00  2.80000E+01  9.424E-05  4.911E-06  6.982E-02 -1.544E+00
   1    6    2     1     1    0.0000E+00 -4.2154E-01   8.4078E-02  0.000E+00  0.000E+00  0.000E+00  2.90000E+01  1.521E-04  1.000E+01  9.257E-01 -4.554E-01
   1    5    2     1     2    8.4078E-02 -1.8261E-01   1.1450E-02  0.000E+00  0.000E+00  0.000E+00  2.90000E+01  1.429E-04  1.000E+01  4.246E-01 -4.301E-01
   1    5    3     1     3    1.1450E-02 -4.3127E-01   4.9495E-02  0.000E+00  0.000E+00  0.000E+00  2.90000E+01  1.545E-04  1.000E+01  9.705E-01 -4.444E-01
   1    4    3     1     4    4.9495E-02 -1.9380E-01   2.0236E-02  0.000E+00  0.000E+00  0.000E+00  2.90000E+01  1.356E-04  1.000E+01  4.637E-01 -4.179E-01
   1    4    4     1     5    2.0236E-02 -4.0996E-01   3.7577E-02  0.000E+00  0.000E+00  0.000E+00  2.90000E+01  1.536E-04  1.000E+01  9.314E-01 -4.402E-01
   1    3    4     1     6    3.7577E-02 -2.1015E-01   2.5084E-02  0.000E+00  0.000E+00  0.000E+00  2.90000E+01  1.349E-04  1.000E+01  5.028E-01 -4.180E-01
   1    3    5     1     7    2.5084E-02 -3.7505E-01   3.3614E-02  0.000E+00  0.000E+00  0.000E+00  2.90000E+01  1.517E-04  1.000E+01  8.439E-01 -4.444E-01
   1    3    7     2     1    3.3614E-02 -2.6723E-03   3.6286E-02  0.000E+00  0.000E+00  0.000E+00  2.90000E+01  5.928E-05  2.283E-06  5.505E-03 -4.855E-01
   1    3    8     2     2    3.6286E-02 -6.3179E-03   4.2604E-02  0.000E+00  0.000E+00  0.000E+00  2.87874E+01  8.697E-05  2.346E-06  8.870E-03 -7.123E-01
   1    4    8     2     3    4.2604E-02 -1.3784E-01   1.8045E-01  0.000E+00  0.000E+00  0.000E+00  2.85239E+01  6.044E-05  3.722E-06  1.392E-01 -9.901E-01
   1    5    8     2     4    1.8045E-01 -1.0918E-02   1.9137E-01  0.000E+00  0.000E+00  0.000E+00  2.82880E+01  7.597E-05  3.831E-06  8.773E-03 -1.244E+00
   1    5    9     2     5    1.9137E-01 -1.0780E-01   2.9917E-01  0.000E+00  0.000E+00  0.000E+00  2.80000E+01  9.424E-05  4.911E-06  6.982E-02 -1.544E+00
   1    6    2     1     1    0.0000E+00 -4.2154E-01   1.2449E-01  0.000E+00  0.000E+00  0.000E+00  2.90001E+01  1.521E-04  1.000E+01  9.257E-01 -4.554E-01
   1    5    2     1     2    1.2449E-01 -1.8261E-01   3.3034E-02  0.000E+00  0.000E+00  0.000E+00  2.90000E+01  1.507E-04  1.000E+01  4.246E-01 -4.301E-01
   1    5    3     1     3    3.3034E-02 -4.3127E-01   5.8569E-02  0.000E+00  0.000E+00  0.000E+00  2.90000E+01  1.586E-04  1.000E+01  9.705E-01 -4.444E-01
   1    4    3     1     4    5.8569E-02 -1.9379E-01   4.7852E-02  0.000E+00  0.000E+00  0.000E+00  2.90000E+01  1.374E-04  1.000E+01  4.637E-01 -4.179E-01
   1    4    4     1     5    4.7852E-02 -4.0996E-01   4.5866E-02  0.000E+00  0.000E+00  0.000E+00  2.90000E+01  1.587E-04  1.000E+01  9.314E-01 -4.402E-01
   1    3    4     1     6    4.5866E-02 -2.1015E-01   5.1208E-02  0.000E+00  0.000E+00  0.000E+00  2.90000E+01  1.367E-04  1.000E+01  5.028E-01 -4.180E-01
   1    3    5     1     7    5.1208E-02 -3.7505E-01   4.5472E-02  0.000E+00  0.000E+00  0.000E+00  2.90000E+01  1.565E-04  1.000E+01  8.439E-01 -4.444E-01
   1    3    7     2     1    4.5472E-02 -2.6723E-03   4.8145E-02  0.000E+00  0.000E+00  0.000E+00  2.90000E+01  5.928E-05  2.283E-06  5.505E-03 -4.855E-01
   1    3    8     2     2    4.8145E-02 -6.3179E-03   5.4462E-02  0.000E+00  0.000E+00  0.000E+00  2.87874E+01  8.697E-05  2.346E-06  8.870E-03 -7.123E-01
   1    4    8     2     3    5.4462E-02 -1.3784E-01   1.9231E-01  0.000E+00  0.000E+00  0.000E+00  2.85239E+01  6.044E-05  3.722E-06  1.392E-01 -9.901E-01
   1    5    8     2     4    1.9231E-01 -1.0918E-02   2.0322E-01  0.000E+00  0.000E+00  0.000E+00  2.82880E+01  7.597E-05  3.831E-06  8.773E-03 -1.244E+00
   1    5    9     2     5    2.0322E-01 -1.0780E-01   3.1103E-01  0.000E+00  0.000E+00  0.000E+00  2.80000E+01  9.424E-05  4.911E-06  6.982E-02 -1.544E+00
   1    6    2     1     1    0.0000E+00 -4.2154E-01   1.6441E-01  0.000E+00  0.000E+00  0.000E+00  2.90001E+01  1.521E-04  1.000E+01  9.257E-01 -4.554E-01
   1    5    2     1     2    1.6441E-01 -1.8260E-01   6.8452E-02  0.000E+00  0.000E+00  0.000E+00  2.90000E+01  1.582E-04  1.000E+01  4.246E-01 -4.301E-01
   1    5    3     1     3    6.8452E-02 -4.3126E-01   6.5648E-02  0.000E+00  0.000E+00  0.000E+00  2.90000E+01  1.651E-04  1.000E+01  9.705E-01 -4.444E-01
   1    4    3     1     4    6.5648E-02 -1.9379E-01   8.0620E-02  0.000E+00  0.000E+00  0.000E+00  2.90000E+01  1.389E-04  1.000E+01  4.637E-01 -4.179E-01
   1    4    4     1     5    8.0620E-02 -4.0995E-01   5.9877E-02  0.000E+00  0.000E+00  0.000E+00  2.90000E+01  1.647E-04  1.000E+01  9.314E-01 -4.402E-01
   1    3    4     1     6    5.9877E-02 -2.1015E-01   7.6022E-02  0.000E+00  0.000E+00  0.000E+00  2.90000E+01  1.395E-04  1.000E+01  5.028E-01 -4.180E-01
   1    3    5     1     7    7.6022E-02 -3.7505E-01   6.6638E-02  0.000E+00  0.000E+00  0.000E+00  2.90000E+01  1.611E-04  1.000E+01  8.439E-01 -4.444E-01
   1    3    7     2     1    6.6638E-02 -2.6726E-03   6.9311E-02  0.000E+00  0.000E+00  0.000E+00  2.90000E+01  4.236E-06  2.283E-06  5.505E-03 -4.855E-01
   1    3    8     2     2    6.9311E-02 -6.3179E-03   7.5628E-02  0.000E+00  0.000E+00  0.000E+00  2.87874E+01  8.697E-05  2.346E-06  8.870E-03 -7.123E-01
   1    4    8     2     3    7.5628E-02 -1.3784E-01   2.1347E-01  0.000E+00  0.000E+00  0.000E+00  2.85239E+01  6.044E-05  3.722E-06  1.392E-01 -9.901E-01
   1    5    8     2     4    2.1347E-01 -1.0918E-02   2.2439E-01  0.000E+00  0.000E+00  0.000E+00  2.82880E+01  7.597E-05  3.831E-06  8.773E-03 -1.244E+00
   1    5    9     2     5    2.2439E-01 -1.0780E-01   3.3219E-01  0.000E+00  0.000E+00  0.000E+00  2.80000E+01  9.424E-05  4.911E-06  6.982E-02 -1.544E+00
   1    6    2     1     1    0.0000E+00 -4.2154E-01   2.0193E-01  0.000E+00  0.000E+00  0.000E+00  2.90001E+01  1.521E-04  1.000E+01  9.257E-01 -4.554E-01
   1    5    2     1     2    2.0193E-01 -1.8260E-01   1.1575E-01  0.000E+00  0.000E+00  0.000E+00  2.90001E+01  1.651E-04  1.000E+01  4.246E-01 -4.301E-01
   1    5    3     1     3    1.1575E-01 -4.3125E-01   7.5385E-02  0.000E+00  0.000E+00  0.000E+00  2.90001E+01  1.736E-04  1.000E+01  9.705E-01 -4.444E-01
   1    4    3     1     4    7.5385E-02 -1.9379E-01   1.1117E-01  0.000E+00  0.000E+00  0.000E+00  2.90001E+01  1.408E-04  1.000E+01  4.637E-01 -4.179E-01
   1    4    4     1     5    1.1117E-01 -4.0995E-01   8.3657E-02  0.000E+00  0.000E+00  0.000E+00  2.90000E+01  1.702E-04  1.000E+01  9.314E-01 -4.401E-01
   1    3    4     1     6    8.3657E-02 -2.1015E-01   9.6332E-02  0.000E+00  0.000E+00  0.000E+00  2.90001E+01  1.441E-04  1.000E+01  5.028E-01 -4.180E-01
   1    3    5     1     7    9.6332E-02 -3.7504E-01   9.7468E-02  0.000E+00  0.000E+00  0.000E+00  2.90001E+01  1.648E-04  1.000E+01  8.439E-01 -4.444E-01
   1    3    7     2     1    9.7468E-02 -2.6726E-03   1.0014E-01  0.000E+00  0.000E+00  0.000E+00  2.90000E+01  4.886E-06  2.283E-06  5.505E-03 -4.855E-01
   1    3    8     2     2    1.0014E-01 -6.3179E-03   1.0646E-01  0.000E+00  0.000E+00  0.000E+00  2.87874E+01  8.697E-05  2.346E-06  8.870E-03 -7.123E-01
   1    4    8     2     3    1.0646E-01 -1.3784E-01   2.4430E-01  0.000E+00  0.000E+00  0.000E+00  2.85239E+01  6.044E-05  3.722E-06  1.392E-01 -9.901E-01
   1    5    8     2     4    2.4430E-01 -1.0918E-02   2.5522E-01  0.000E+00  0.000E+00  0.000E+00  2.82880E+01  7.597E-05  3.831E-06  8.773E-03 -1.244E+00
   1    5    9     2     5    2.5522E-01 -1.0780E-01   3.6302E-01  0.000E+00  0.000E+00  0.000E+00  2.80000E+01  9.424E-05  4.911E-06  6.982E-02 -1.544E+00
   1    6    2     1     1    0.0000E+00 -4.2154E-01   2.3599E-01  0.000E+00  0.000E+00  0.000E+00  2.90001E+01  1.521E-04  1.000E+01  9.257E-01 -4.554E-01
   1    5    2     1     2    2.3599E-01 -1.8260E-01   1.7060E-01  0.000E+00  0.000E+00  0.000E+00  2.90001E+01  1.713E-04  1.000E+01  4.246E-01 -4.301E-01
   1    5    3     1     3    1.7060E-01 -4.3124E-01   9.1785E-02  0.000E+00  0.000E+00  0.000E+00  2.90001E+01  1.833E-04  1.000E+01  9.705E-01 -4.444E-01
   1    4    3     1     4    9.1785E-02 -1.9379E-01   1.3567E-01  0.000E+00  0.000E+00  0.000E+00  2.90001E+01  1.441E-04  1.000E+01  4.637E-01 -4.179E-01
   1    4    4     1     5    1.3567E-01 -4.0994E-01   1.1818E-01  0.000E+00  0.000E+00  0.000E+00  2.90001E+01  1.746E-04  1.000E+01  9.314E-01 -4.401E-01
   1    3    4     1     6    1.1818E-01 -2.1015E-01   1.1497E-01  0.000E+00  0.000E+00  0.000E+00  2.90001E+01  1.507E-04  1.000E+01  5.028E-01 -4.180E-01
   1    3    5     1     7    1.1497E-01 -3.7504E-01   1.3366E-01  0.000E+00  0.000E+00  0.000E+00  2.90001E+01  1.682E-04  1.000E+01  8.439E-01 -4.444E-01
   1    3    7     2     1    1.3366E-01 -2.6726E-03   1.3633E-01  0.000E+00  0.000E+00  0.000E+00  2.90000E+01  8.511E-06  2.283E-06  5.505E-03 -4.855E-01
   1    3    8     2     2    1.3633E-01 -6.3186E-03   1.4265E-01  0.000E+00  0.000E+00  0.000E+00  2.87874E+01  7.160E-06  2.346E-06  8.870E-03 -7.124E-01
   1    4    8     2     3    1.4265E-01 -1.3784E-01   2.8049E-01  0.000E+00  0.000E+00  0.000E+00  2.85240E+01  6.044E-05  3.722E-06  1.392E-01 -9.901E-01
   1    5    8     2     4    2.8049E-01 -1.0918E-02   2.9141E-01  0.000E+00  0.000E+00  0.000E+00  2.82880E+01  7.597E-05  3.831E-06  8.773E-03 -1.244E+00
   1    5    9     2     5    2.9141E-01 -1.0780E-01   3.9921E-01  0.000E+00  0.000E+00  0.000E+00  2.80000E+01  9.424E-05  4.911E-06  6.982E-02 -1.544E+00
   1    6    2     1     1    0.0000E+00 -4.2154E-01   2.6613E-01  0.000E+00  0.000E+00  0.000E+00  2.90001E+01  1.521E-04  1.000E+01  9.257E-01 -4.554E-01
   1    5    2     1     2    2.6613E-01 -1.8260E-01   2.2809E-01  0.000E+00  0.000E+00  0.000E+00  2.90001E+01  1.767E-04  1.000E+01  4.246E-01 -4.301E-01
   1    5    3     1     3    2.2809E-01 -4.3123E-01   1.1785E-01  0.000E+00  0.000E+00  0.000E+00  2.90001E+01  1.933E-04  1.000E+01  9.705E-01 -4.443E-01
   1    4    3     1     4    1.1785E-01 -1.9379E-01   1.5474E-01  0.000E+00  0.000E+00  0.000E+00  2.90001E+01  1.491E-04  1.000E+01  4.637E-01 -4.179E-01
   1    4    4     1     5    1.5474E-01 -4.0994E-01   1.6087E-01  0.000E+00  0.000E+00  0.000E+00  2.90001E+01  1.780E-04  1.000E+01  9.314E-01 -4.401E-01
   1    3    4     1     6    1.6087E-01 -2.1014E-01   1.3726E-01  0.000E+00  0.000E+00  0.000E+00  2.90001E+01  1.588E-04  1.000E+01  5.028E-01 -4.179E-01
   1    3    5     1     7    1.3726E-01 -3.7504E-01   1.6925E-01  0.000E+00  0.000E+00  0.000E+00  2.90001E+01  1.723E-04  1.000E+01  8.439E-01 -4.444E-01
   1    3    7     2     1    1.6925E-01 -2.6726E-03   1.7193E-01  0.000E+00  0.000E+00  0.000E+00  2.90000E+01  1.209E-05  2.283E-06  5.505E-03 -4.855E-01
   1    3    8     2     2    1.7193E-01 -6.3186E-03   1.7825E-01  0.000E+00  0.000E+00  0.000E+00  2.87874E+01  1.088E-05  2.346E-06  8.870E-03 -7.124E-01
   1    4    8     2     3    1.7825E-01 -1.3783E-01   3.1608E-01  0.000E+00  0.000E+00  0.000E+00  2.85240E+01  1.209E-04  3.722E-06  1.392E-01 -9.900E-01
   1    5    8     2     4    3.1608E-01 -1.0919E-02   3.2700E-01  0.000E+00  0.000E+00  0.000E+00  2.82880E+01  1.894E-05  3.831E-06  8.773E-03 -1.245E+00
   1    5    9     2     5    3.2700E-01 -1.0780E-01   4.3480E-01  0.000E+00  0.000E+00  0.000E+00  2.80000E+01  9.424E-05  4.911E-06  6.982E-02 -1.544E+00
   1    6    2     1     1    0.0000E+00 -4.2154E-01   2.9229E-01  0.000E+00  0.000E+00  0.000E+00  2.90001E+01  1.521E-04  1.000E+01  9.257E-01 -4.554E-01
   1    5    2     1     2    2.9229E-01 -1.8259E-01   2.8410E-01  0.000E+00  0.000E+00  0.000E+00  2.90001E+01  1.814E-04  1.000E+01  4.246E-01 -4.301E-01
   1    5    3     1     3    2.8410E-01 -4.3122E-01   1.5541E-01  0.000E+00  0.000E+00  0.000E+00  2.90001E+01  2.028E-04  1.000E+01  9.705E-01 -4.443E-01
   1    4    3     1     4    1.5541E-01 -1.9379E-01   1.7209E-01  0.000E+00  0.000E+00  0.000E+00  2.90001E+01  1.563E-04  1.000E+01  4.637E-01 -4.179E-01
   1    4    4     1     5    1.7209E-01 -4.0994E-01   2.0652E-01  0.000E+00  0.000E+00  0.000E+00  2.90001E+01  1.811E-04  1.000E+01  9.314E-01 -4.401E-01
   1    3    4     1     6    2.0652E-01 -2.1014E-01   1.6765E-01  0.000E+00  0.000E+00  0.000E+00  2.90001E+01  1.672E-04  1.000E+01  5.028E-01 -4.179E-01
   1    3    5     1     7    1.6765E-01 -3.7503E-01   2.0076E-01  0.000E+00  0.000E+00  0.000E+00  2.90001E+01  1.778E-04  1.000E+01  8.439E-01 -4.444E-01
   1    3    7     2     1    2.0076E-01 -2.6726E-03   2.0343E-01  0.000E+00  0.000E+00  0.000E+00  2.90000E+01  1.040E-05  2.283E-06  5.505E-03 -4.855E-01
   1    3    8     2     2    2.0343E-01 -6.3185E-03   2.0975E-01  0.000E+00  0.000E+00  0.000E+00  2.87874E+01  1.409E-05  2.346E-06  8.870E-03 -7.124E-01
   1    4    8     2     3    2.0975E-01 -1.3783E-01   3.4759E-01  0.000E+00  0.000E+00  0.000E+00  2.85240E+01  1.209E-04  3.722E-06  1.392E-01 -9.900E-01
   1    5    8     2     4    3.4759E-01 -1.0919E-02   3.5851E-01  0.000E+00  0.000E+00  0.000E+00  2.82880E+01  2.232E-05  3.831E-06  8.773E-03 -1.245E+00
   1    5    9     2     5    3.5851E-01 -1.0780E-01   4.6631E-01  0.000E+00  0.000E+00  0.000E+00  2.80000E+01  9.424E-05  4.911E-06  6.982E-02 -1.544E+00
   1    6    2     1     1    0.0000E+00 -4.2154E-01   3.1466E-01  0.000E+00  0.000E+00  0.000E+00  2.90001E+01  1.521E-04  1.000E+01  9.257E-01 -4.554E-01
   1    5    2     1     2    3.1466E-01 -1.8259E-01   3.3580E-01  0.000E+00  0.000E+00  0.000E+00  2.90001E+01  1.853E-04  1.000E+01  4.246E-01 -4.301E-01
   1    5    3     1     3    3.3580E-01 -4.3121E-01   2.0478E-01  0.000E+00  0.000E+00  0.000E+00  2.90001E+01  2.114E-04  1.000E+01  9.705E-01 -4.443E-01
   1    4    3     1     4    2.0478E-01 -1.9378E-01   1.9258E-01  0.000E+00  0.000E+00  0.000E+00  2.90001E+01  1.655E-04  1.000E+01  4.637E-01 -4.179E-01
   1    4    4     1     5    1.9258E-01 -4.0993E-01   2.4956E-01  0.000E+00  0.000E+00  0.000E+00  2.90001E+01  1.848E-04  1.000E+01  9.314E-01 -4.401E-01
   1    3    4     1     6    2.4956E-01 -2.1013E-01   2.0784E-01  0.000E+00  0.000E+00  0.000E+00  2.90001E+01  1.750E-04  1.000E+01  5.028E-01 -4.179E-01
   1    3    5     1     7    2.0784E-01 -3.7503E-01   2.2904E-01  0.000E+00  0.000E+00  0.000E+00  2.90001E+01  1.849E-04  1.000E+01  8.439E-01 -4.444E-01
   1    3    7     2     1    2.2904E-01 -2.6725E-03   2.3171E-01  0.000E+00  0.000E+00  0.000E+00  2.90000E+01  1.328E-05  2.283E-06  5.505E-03 -4.855E-01
   1    3    8     2     2    2.3171E-01 -6.3185E-03   2.3803E-01  0.000E+00  0.000E+00  0.000E+00  2.87874E+01  1.708E-05  2.346E-06  8.870E-03 -7.124E-01
   1    4    8     2     3    2.3803E-01 -1.3783E-01   3.7587E-01  0.000E+00  0.000E+00  0.000E+00  2.85240E+01  1.209E-04  3.722E-06  1.392E-01 -9.900E-01
   1    5    8     2     4    3.7587E-01 -1.0919E-02   3.8679E-01  0.000E+00  0.000E+00  0.000E+00  2.82880E+01  2.546E-05  3.831E-06  8.773E-03 -1.245E+00
   1    5    9     2     5    3.8679E-01 -1.0780E-01   4.9459E-01  0.000E+00  0.000E+00  0.000E+00  2.80000E+01  9.424E-05  4.911E-06  6.982E-02 -1.544E+00




 HEAD WILL BE SAVED ON UNIT   37 AT END OF TIME STEP    1, STRESS PERIOD    2

 DRAWDOWN WILL BE SAVED ON UNIT   38 AT END OF TIME STEP    1, STRESS PERIOD    2
1
  VOLUMETRIC BUDGET FOR ENTIRE MODEL AT END OF TIME STEP    1, STRESS PERIOD   2
  ------------------------------------------------------------------------------

     CUMULATIVE VOLUMES      L**3       RATES FOR THIS TIME STEP      L**3/T
     ------------------                 ------------------------

           IN:                                      IN:
           ---                                      ---
             STORAGE =       4.4910E-02               STORAGE =           0.1796
       CONSTANT HEAD =         835.0418         CONSTANT HEAD =         668.0949
      STREAM LEAKAGE =           0.0000        STREAM LEAKAGE =           0.0000

            TOTAL IN =         835.0867              TOTAL IN =         668.2745

          OUT:                                     OUT:
          ----                                     ----
             STORAGE =       5.7220E-06               STORAGE =       2.2888E-05
       CONSTANT HEAD =         834.8031         CONSTANT HEAD =         667.7115
      STREAM LEAKAGE =           6.4781        STREAM LEAKAGE =          24.8988

           TOTAL OUT =         841.2812             TOTAL OUT =         692.6103

            IN - OUT =          -6.1945              IN - OUT =         -24.3358

 PERCENT DISCREPANCY =          -0.74     PERCENT DISCREPANCY =          -3.58






         TIME SUMMARY AT END OF TIME STEP    1 IN STRESS PERIOD    2
                    SECONDS     MINUTES      HOURS       DAYS        YEARS
                    -----------------------------------------------------------
   TIME STEP LENGTH 0.25000     4.16667E-03 6.94444E-05 2.89352E-06 7.92202E-09
 STRESS PERIOD TIME 0.25000     4.16667E-03 6.94444E-05 2.89352E-06 7.92202E-09
         TOTAL TIME  1.2500     2.08333E-02 3.47222E-04 1.44676E-05 3.96101E-08
1
1
                            STRESS PERIOD NO.    3, LENGTH =  0.2500000    
                            -----------------------------------------------

                              NUMBER OF TIME STEPS =     1

                               MULTIPLIER FOR DELT =     1.000

                            INITIAL TIME STEP SIZE =  0.2500000    

 REUSING NON-PARAMETER SPECIFIED-HEAD DATA FROM LAST STRESS PERIOD


      2 TIME-VARIANT SPECIFIED-HEAD CELLS



 CLASSIFICATION & COUNT OF STREAM SEGMENTS BASED ON SOURCE OF INFLOW:

                HEADWATER     DIVERSION     RECEIVES TRIBUTARY FLOW
                ---------     ---------     -----------------------
                     1              0               1



                    INPUT DATA FOR EACH STREAM SEGMENT
 ---------------------------------------------------------------------------------------------

 SEGMENT    SEG.     INFLOW   OVERLAND   STREAM    STREAM   ICALC  OUTFLOW  DIVERSION PRIORITY
    NO.    LENGTH     RATE     RUNOFF      ET       PPT.    METH.  TO SEG.  FROM SEG.    NO.

      1  5.062E+02 0.000E+00 0.000E+00 0.000E+00 0.000E+00    0        2        0        0
      2  3.171E+02 0.000E+00 0.000E+00 0.000E+00 0.000E+00    3        0        0        0


         STREAMBED PROPERTIES AND STREAM DIMENSIONS

 SEGMENT     WIDTH OF STREAM     DEPTH OF STREAM    STREAM ROUGHNESS
    No.     UPPER     LOWER     UPPER     LOWER     CHANNEL      BANK

     1  1.000E+01 1.000E+01 1.000E+00 1.000E+00

 STREAMFLOW RELATION WITH DEPTH IS BASED ON EQUATION Q = CDPTH*(DEPTH)**FDPTH
 STREAMFLOW RELATION WITH WIDTH IS BASED ON EQUATION Q = AWDTH*(WIDTH)**BWDTH

 SEGMENT NO.      CDPTH     FDPTH    AWDTH     BWDTH

          2 1.000E-04 1.010E+00 1.000E-05 1.010E+00



 
 SOLVING FOR HEAD 


     1 CALLS TO PCG ROUTINE FOR TIME STEP     1 IN STRESS PERIOD    3
     1 TOTAL ITERATIONS

 MAXIMUM HEAD CHANGE FOR EACH ITERATION (1 INDICATES THE FIRST INNER ITERATION):

    HEAD CHANGE    HEAD CHANGE    HEAD CHANGE    HEAD CHANGE    HEAD CHANGE 
   LAYER,ROW,COL  LAYER,ROW,COL  LAYER,ROW,COL  LAYER,ROW,COL  LAYER,ROW,COL
 ---------------------------------------------------------------------------
  1  0.3009E-03
   (  3, 10,  1)

 MAXIMUM RESIDUAL FOR EACH ITERATION (1 INDICATES THE FIRST INNER ITERATION):

    RESIDUAL       RESIDUAL       RESIDUAL       RESIDUAL       RESIDUAL    
   LAYER,ROW,COL  LAYER,ROW,COL  LAYER,ROW,COL  LAYER,ROW,COL  LAYER,ROW,COL
 ---------------------------------------------------------------------------
  1 -0.4701    
   (  1,  4,  4)



 OUTPUT CONTROL FOR STRESS PERIOD    3   TIME STEP    1
    SAVE HEAD FOR ALL LAYERS
    SAVE DRAWDOWN FOR ALL LAYERS
    SAVE BUDGET
    PRINT BUDGET
 UBDSV1 SAVING "         STORAGE" ON UNIT   9 AT TIME STEP     1, STRESS PERIOD   3
 UBDSV2 SAVING "   CONSTANT HEAD" ON UNIT   9 AT TIME STEP     1, STRESS PERIOD   3
 UBDSV1 SAVING "FLOW RIGHT FACE " ON UNIT   9 AT TIME STEP     1, STRESS PERIOD   3
 UBDSV1 SAVING "FLOW FRONT FACE " ON UNIT   9 AT TIME STEP     1, STRESS PERIOD   3
 UBDSV1 SAVING "FLOW LOWER FACE " ON UNIT   9 AT TIME STEP     1, STRESS PERIOD   3
 UBDSV4 SAVING "  STREAM LEAKAGE" ON UNIT   9 AT TIME STEP     1, STRESS PERIOD   3



 STREAM LISTING     PERIOD      3   STEP        1

 LAYER ROW COL. STREAM  RCH.  FLOW INTO     FLOW TO   FLOW OUT OF   OVRLND.     DIRECT     STREAM       STREAM     STREAM     STREAM   STREAMBED  STREAMBED
                SEG.NO.  NO.  STRM. RCH.    AQUIFER    STRM. RCH.    RUNOFF     PRECIP       ET          HEAD       DEPTH      WIDTH   CONDCTNC.   GRADIENT

   1    6    2     1     1    0.0000E+00 -4.2182E-01   4.2182E-01  0.000E+00  0.000E+00  0.000E+00  2.90000E+01  0.000E+00  1.000E+01  9.257E-01 -4.557E-01
   1    5    2     1     2    4.2182E-01  2.4183E-01   1.7998E-01  0.000E+00  0.000E+00  0.000E+00  3.00000E+01  1.000E+00  1.000E+01  4.246E-01  5.696E-01
   1    5    3     1     3    1.7998E-01  1.7998E-01   0.0000E+00  0.000E+00  0.000E+00  0.000E+00  3.00000E+01  0.000E+00  1.000E+01  9.705E-01  5.553E-01
   1    4    3     1     4    0.0000E+00 -1.9390E-01   1.9390E-01  0.000E+00  0.000E+00  0.000E+00  2.90000E+01  0.000E+00  1.000E+01  4.637E-01 -4.182E-01
   1    4    4     1     5    1.9390E-01  1.9390E-01   0.0000E+00  0.000E+00  0.000E+00  0.000E+00  3.00000E+01  0.000E+00  1.000E+01  9.314E-01  5.596E-01
   1    3    4     1     6    0.0000E+00  0.0000E+00   0.0000E+00  0.000E+00  0.000E+00  0.000E+00  3.00000E+01  0.000E+00  1.000E+01  5.028E-01  5.819E-01
   1    3    5     1     7    0.0000E+00 -3.7518E-01   3.7518E-01  0.000E+00  0.000E+00  0.000E+00  2.90000E+01  0.000E+00  1.000E+01  8.439E-01 -4.446E-01
   1    3    7     2     1    3.7518E-01 -3.7017E-03   3.7888E-01  0.000E+00  0.000E+00  0.000E+00  2.90000E+01  8.843E-05  3.752E-06  7.626E-03 -4.854E-01
   1    3    8     2     2    3.7888E-01 -9.5144E-03   3.8840E-01  0.000E+00  0.000E+00  0.000E+00  2.87874E+01  8.696E-05  3.848E-06  1.336E-02 -7.123E-01
   1    4    8     2     3    3.8840E-01 -1.3784E-01   5.2623E-01  0.000E+00  0.000E+00  0.000E+00  2.85240E+01  6.043E-05  5.229E-06  1.392E-01 -9.901E-01
   1    5    8     2     4    5.2623E-01 -1.1913E-02   5.3814E-01  0.000E+00  0.000E+00  0.000E+00  2.82880E+01  7.596E-05  5.348E-06  9.573E-03 -1.244E+00
   1    5    9     2     5    5.3814E-01 -1.0780E-01   6.4594E-01  0.000E+00  0.000E+00  0.000E+00  2.80001E+01  9.424E-05  6.431E-06  6.982E-02 -1.544E+00
   1    6    2     1     1    0.0000E+00 -4.2182E-01   4.2182E-01  0.000E+00  0.000E+00  0.000E+00  2.90000E+01  0.000E+00  1.000E+01  9.257E-01 -4.557E-01
   1    5    2     1     2    4.2182E-01 -1.8274E-01   6.0456E-01  0.000E+00  0.000E+00  0.000E+00  2.90000E+01  0.000E+00  1.000E+01  4.246E-01 -4.304E-01
   1    5    3     1     3    6.0456E-01 -4.3157E-01   1.0361E+00  0.000E+00  0.000E+00  0.000E+00  2.90000E+01  0.000E+00  1.000E+01  9.705E-01 -4.447E-01
   1    4    3     1     4    1.0361E+00 -1.9390E-01   1.2300E+00  0.000E+00  0.000E+00  0.000E+00  2.90000E+01  0.000E+00  1.000E+01  4.637E-01 -4.182E-01
   1    4    4     1     5    1.2300E+00 -4.1020E-01   1.6402E+00  0.000E+00  0.000E+00  0.000E+00  2.90000E+01  0.000E+00  1.000E+01  9.314E-01 -4.404E-01
   1    3    4     1     6    1.6402E+00 -2.1024E-01   1.8505E+00  0.000E+00  0.000E+00  0.000E+00  2.90000E+01  0.000E+00  1.000E+01  5.028E-01 -4.181E-01
   1    3    5     1     7    1.8505E+00 -3.7518E-01   2.2256E+00  0.000E+00  0.000E+00  0.000E+00  2.90000E+01  0.000E+00  1.000E+01  8.439E-01 -4.446E-01
   1    3    7     2     1    2.2256E+00 -3.7022E-03   2.2293E+00  0.000E+00  0.000E+00  0.000E+00  2.90000E+01  1.840E-05  3.752E-06  7.626E-03 -4.855E-01
   1    3    8     2     2    2.2293E+00 -9.5152E-03   2.2388E+00  0.000E+00  0.000E+00  0.000E+00  2.87874E+01  2.573E-05  3.848E-06  1.336E-02 -7.124E-01
   1    4    8     2     3    2.2388E+00 -1.3783E-01   2.3767E+00  0.000E+00  0.000E+00  0.000E+00  2.85240E+01  1.209E-04  5.229E-06  1.392E-01 -9.900E-01
   1    5    8     2     4    2.3767E+00 -1.1914E-02   2.3886E+00  0.000E+00  0.000E+00  0.000E+00  2.82880E+01  2.778E-05  5.348E-06  9.573E-03 -1.245E+00
   1    5    9     2     5    2.3886E+00 -1.0780E-01   2.4963E+00  0.000E+00  0.000E+00  0.000E+00  2.80001E+01  9.424E-05  6.431E-06  6.982E-02 -1.544E+00
   1    6    2     1     1    0.0000E+00 -4.2182E-01   4.2182E-01  0.000E+00  0.000E+00  0.000E+00  2.90000E+01  0.000E+00  1.000E+01  9.257E-01 -4.557E-01
   1    5    2     1     2    4.2182E-01 -1.8274E-01   6.0456E-01  0.000E+00  0.000E+00  0.000E+00  2.90000E+01  0.000E+00  1.000E+01  4.246E-01 -4.304E-01
   1    5    3     1     3    6.0456E-01 -4.3157E-01   1.0361E+00  0.000E+00  0.000E+00  0.000E+00  2.90000E+01  0.000E+00  1.000E+01  9.705E-01 -4.447E-01
   1    4    3     1     4    1.0361E+00 -1.9390E-01   1.2300E+00  0.000E+00  0.000E+00  0.000E+00  2.90000E+01  0.000E+00  1.000E+01  4.637E-01 -4.182E-01
   1    4    4     1     5    1.2300E+00 -4.1020E-01   1.6402E+00  0.000E+00  0.000E+00  0.000E+00  2.90000E+01  0.000E+00  1.000E+01  9.314E-01 -4.404E-01
   1    3    4     1     6    1.6402E+00 -2.1024E-01   1.8505E+00  0.000E+00  0.000E+00  0.000E+00  2.90000E+01  0.000E+00  1.000E+01  5.028E-01 -4.181E-01
   1    3    5     1     7    1.8505E+00 -3.7518E-01   2.2256E+00  0.000E+00  0.000E+00  0.000E+00  2.90000E+01  0.000E+00  1.000E+01  8.439E-01 -4.446E-01
   1    3    7     2     1    2.2256E+00 -3.7022E-03   2.2294E+00  0.000E+00  0.000E+00  0.000E+00  2.90002E+01  1.840E-05  3.752E-06  7.626E-03 -4.855E-01
   1    3    8     2     2    2.2294E+00 -9.5152E-03   2.2389E+00  0.000E+00  0.000E+00  0.000E+00  2.87876E+01  2.573E-05  3.848E-06  1.336E-02 -7.124E-01
   1    4    8     2     3    2.2389E+00 -1.3783E-01   2.3767E+00  0.000E+00  0.000E+00  0.000E+00  2.85242E+01  1.209E-04  5.229E-06  1.392E-01 -9.900E-01
   1    5    8     2     4    2.3767E+00 -1.1914E-02   2.3886E+00  0.000E+00  0.000E+00  0.000E+00  2.82882E+01  2.778E-05  5.348E-06  9.573E-03 -1.245E+00
   1    5    9     2     5    2.3886E+00 -1.0780E-01   2.4964E+00  0.000E+00  0.000E+00  0.000E+00  2.80003E+01  9.424E-05  6.431E-06  6.982E-02 -1.544E+00
   1    6    2     1     1    0.0000E+00 -4.2182E-01   4.2182E-01  0.000E+00  0.000E+00  0.000E+00  2.90000E+01  0.000E+00  1.000E+01  9.257E-01 -4.557E-01
   1    5    2     1     2    4.2182E-01 -1.8274E-01   6.0456E-01  0.000E+00  0.000E+00  0.000E+00  2.90000E+01  0.000E+00  1.000E+01  4.246E-01 -4.304E-01
   1    5    3     1     3    6.0456E-01 -4.3157E-01   1.0361E+00  0.000E+00  0.000E+00  0.000E+00  2.90000E+01  0.000E+00  1.000E+01  9.705E-01 -4.447E-01
   1    4    3     1     4    1.0361E+00 -1.9390E-01   1.2300E+00  0.000E+00  0.000E+00  0.000E+00  2.90000E+01  0.000E+00  1.000E+01  4.637E-01 -4.182E-01
   1    4    4     1     5    1.2300E+00 -4.1020E-01   1.6402E+00  0.000E+00  0.000E+00  0.000E+00  2.90000E+01  0.000E+00  1.000E+01  9.314E-01 -4.404E-01
   1    3    4     1     6    1.6402E+00 -2.1024E-01   1.8505E+00  0.000E+00  0.000E+00  0.000E+00  2.90000E+01  0.000E+00  1.000E+01  5.028E-01 -4.181E-01
   1    3    5     1     7    1.8505E+00 -3.7518E-01   2.2256E+00  0.000E+00  0.000E+00  0.000E+00  2.90000E+01  0.000E+00  1.000E+01  8.439E-01 -4.446E-01
   1    3    7     2     1    2.2256E+00 -3.7022E-03   2.2294E+00  0.000E+00  0.000E+00  0.000E+00  2.90002E+01  1.840E-05  3.752E-06  7.626E-03 -4.855E-01
   1    3    8     2     2    2.2294E+00 -9.5152E-03   2.2389E+00  0.000E+00  0.000E+00  0.000E+00  2.87876E+01  2.573E-05  3.848E-06  1.336E-02 -7.124E-01
   1    4    8     2     3    2.2389E+00 -1.3783E-01   2.3767E+00  0.000E+00  0.000E+00  0.000E+00  2.85242E+01  1.209E-04  5.229E-06  1.392E-01 -9.900E-01
   1    5    8     2     4    2.3767E+00 -1.1914E-02   2.3886E+00  0.000E+00  0.000E+00  0.000E+00  2.82882E+01  2.778E-05  5.348E-06  9.573E-03 -1.245E+00
   1    5    9     2     5    2.3886E+00 -1.0780E-01   2.4964E+00  0.000E+00  0.000E+00  0.000E+00  2.80003E+01  9.424E-05  6.431E-06  6.982E-02 -1.544E+00
   1    6    2     1     1    0.0000E+00 -4.2182E-01   4.2182E-01  0.000E+00  0.000E+00  0.000E+00  2.90000E+01  0.000E+00  1.000E+01  9.257E-01 -4.557E-01
   1    5    2     1     2    4.2182E-01 -1.8274E-01   6.0456E-01  0.000E+00  0.000E+00  0.000E+00  2.90000E+01  0.000E+00  1.000E+01  4.246E-01 -4.304E-01
   1    5    3     1     3    6.0456E-01 -4.3157E-01   1.0361E+00  0.000E+00  0.000E+00  0.000E+00  2.90000E+01  0.000E+00  1.000E+01  9.705E-01 -4.447E-01
   1    4    3     1     4    1.0361E+00 -1.9390E-01   1.2300E+00  0.000E+00  0.000E+00  0.000E+00  2.90000E+01  0.000E+00  1.000E+01  4.637E-01 -4.182E-01
   1    4    4     1     5    1.2300E+00 -4.1020E-01   1.6402E+00  0.000E+00  0.000E+00  0.000E+00  2.90000E+01  0.000E+00  1.000E+01  9.314E-01 -4.404E-01
   1    3    4     1     6    1.6402E+00 -2.1024E-01   1.8505E+00  0.000E+00  0.000E+00  0.000E+00  2.90000E+01  0.000E+00  1.000E+01  5.028E-01 -4.181E-01
   1    3    5     1     7    1.8505E+00 -3.7518E-01   2.2256E+00  0.000E+00  0.000E+00  0.000E+00  2.90000E+01  0.000E+00  1.000E+01  8.439E-01 -4.446E-01
   1    3    7     2     1    2.2256E+00 -3.7022E-03   2.2294E+00  0.000E+00  0.000E+00  0.000E+00  2.90002E+01  1.840E-05  3.752E-06  7.626E-03 -4.855E-01
   1    3    8     2     2    2.2294E+00 -9.5152E-03   2.2389E+00  0.000E+00  0.000E+00  0.000E+00  2.87876E+01  2.573E-05  3.848E-06  1.336E-02 -7.124E-01
   1    4    8     2     3    2.2389E+00 -1.3783E-01   2.3767E+00  0.000E+00  0.000E+00  0.000E+00  2.85242E+01  1.209E-04  5.229E-06  1.392E-01 -9.900E-01
   1    5    8     2     4    2.3767E+00 -1.1914E-02   2.3886E+00  0.000E+00  0.000E+00  0.000E+00  2.82882E+01  2.778E-05  5.348E-06  9.573E-03 -1.245E+00
   1    5    9     2     5    2.3886E+00 -1.0780E-01   2.4964E+00  0.000E+00  0.000E+00  0.000E+00  2.80003E+01  9.424E-05  6.431E-06  6.982E-02 -1.544E+00
   1    6    2     1     1    0.0000E+00 -4.2182E-01   4.2182E-01  0.000E+00  0.000E+00  0.000E+00  2.90000E+01  0.000E+00  1.000E+01  9.257E-01 -4.557E-01
   1    5    2     1     2    4.2182E-01 -1.8274E-01   6.0456E-01  0.000E+00  0.000E+00  0.000E+00  2.90000E+01  0.000E+00  1.000E+01  4.246E-01 -4.304E-01
   1    5    3     1     3    6.0456E-01 -4.3157E-01   1.0361E+00  0.000E+00  0.000E+00  0.000E+00  2.90000E+01  0.000E+00  1.000E+01  9.705E-01 -4.447E-01
   1    4    3     1     4    1.0361E+00 -1.9390E-01   1.2300E+00  0.000E+00  0.000E+00  0.000E+00  2.90000E+01  0.000E+00  1.000E+01  4.637E-01 -4.182E-01
   1    4    4     1     5    1.2300E+00 -4.1020E-01   1.6402E+00  0.000E+00  0.000E+00  0.000E+00  2.90000E+01  0.000E+00  1.000E+01  9.314E-01 -4.404E-01
   1    3    4     1     6    1.6402E+00 -2.1024E-01   1.8505E+00  0.000E+00  0.000E+00  0.000E+00  2.90000E+01  0.000E+00  1.000E+01  5.028E-01 -4.181E-01
   1    3    5     1     7    1.8505E+00 -3.7518E-01   2.2256E+00  0.000E+00  0.000E+00  0.000E+00  2.90000E+01  0.000E+00  1.000E+01  8.439E-01 -4.446E-01
   1    3    7     2     1    2.2256E+00 -3.7022E-03   2.2294E+00  0.000E+00  0.000E+00  0.000E+00  2.90002E+01  1.840E-05  3.752E-06  7.626E-03 -4.855E-01
   1    3    8     2     2    2.2294E+00 -9.5152E-03   2.2389E+00  0.000E+00  0.000E+00  0.000E+00  2.87876E+01  2.573E-05  3.848E-06  1.336E-02 -7.124E-01
   1    4    8     2     3    2.2389E+00 -1.3783E-01   2.3767E+00  0.000E+00  0.000E+00  0.000E+00  2.85242E+01  1.209E-04  5.229E-06  1.392E-01 -9.900E-01
   1    5    8     2     4    2.3767E+00 -1.1914E-02   2.3886E+00  0.000E+00  0.000E+00  0.000E+00  2.82882E+01  2.778E-05  5.348E-06  9.573E-03 -1.245E+00
   1    5    9     2     5    2.3886E+00 -1.0780E-01   2.4964E+00  0.000E+00  0.000E+00  0.000E+00  2.80003E+01  9.424E-05  6.431E-06  6.982E-02 -1.544E+00
   1    6    2     1     1    0.0000E+00 -4.2182E-01   4.2182E-01  0.000E+00  0.000E+00  0.000E+00  2.90000E+01  0.000E+00  1.000E+01  9.257E-01 -4.557E-01
   1    5    2     1     2    4.2182E-01 -1.8274E-01   6.0456E-01  0.000E+00  0.000E+00  0.000E+00  2.90000E+01  0.000E+00  1.000E+01  4.246E-01 -4.304E-01
   1    5    3     1     3    6.0456E-01 -4.3157E-01   1.0361E+00  0.000E+00  0.000E+00  0.000E+00  2.90000E+01  0.000E+00  1.000E+01  9.705E-01 -4.447E-01
   1    4    3     1     4    1.0361E+00 -1.9390E-01   1.2300E+00  0.000E+00  0.000E+00  0.000E+00  2.90000E+01  0.000E+00  1.000E+01  4.637E-01 -4.182E-01
   1    4    4     1     5    1.2300E+00 -4.1020E-01   1.6402E+00  0.000E+00  0.000E+00  0.000E+00  2.90000E+01  0.000E+00  1.000E+01  9.314E-01 -4.404E-01
   1    3    4     1     6    1.6402E+00 -2.1024E-01   1.8505E+00  0.000E+00  0.000E+00  0.000E+00  2.90000E+01  0.000E+00  1.000E+01  5.028E-01 -4.181E-01
   1    3    5     1     7    1.8505E+00 -3.7518E-01   2.2256E+00  0.000E+00  0.000E+00  0.000E+00  2.90000E+01  0.000E+00  1.000E+01  8.439E-01 -4.446E-01
   1    3    7     2     1    2.2256E+00 -3.7022E-03   2.2294E+00  0.000E+00  0.000E+00  0.000E+00  2.90002E+01  1.840E-05  3.752E-06  7.626E-03 -4.855E-01
   1    3    8     2     2    2.2294E+00 -9.5152E-03   2.2389E+00  0.000E+00  0.000E+00  0.000E+00  2.87876E+01  2.573E-05  3.848E-06  1.336E-02 -7.124E-01
   1    4    8     2     3    2.2389E+00 -1.3783E-01   2.3767E+00  0.000E+00  0.000E+00  0.000E+00  2.85242E+01  1.209E-04  5.229E-06  1.392E-01 -9.900E-01
   1    5    8     2     4    2.3767E+00 -1.1914E-02   2.3886E+00  0.000E+00  0.000E+00  0.000E+00  2.82882E+01  2.778E-05  5.348E-06  9.573E-03 -1.245E+00
   1    5    9     2     5    2.3886E+00 -1.0780E-01   2.4964E+00  0.000E+00  0.000E+00  0.000E+00  2.80003E+01  9.424E-05  6.431E-06  6.982E-02 -1.544E+00
   1    6    2     1     1    0.0000E+00 -4.2182E-01   4.2182E-01  0.000E+00  0.000E+00  0.000E+00  2.90000E+01  0.000E+00  1.000E+01  9.257E-01 -4.557E-01
   1    5    2     1     2    4.2182E-01 -1.8274E-01   6.0456E-01  0.000E+00  0.000E+00  0.000E+00  2.90000E+01  0.000E+00  1.000E+01  4.246E-01 -4.304E-01
   1    5    3     1     3    6.0456E-01 -4.3157E-01   1.0361E+00  0.000E+00  0.000E+00  0.000E+00  2.90000E+01  0.000E+00  1.000E+01  9.705E-01 -4.447E-01
   1    4    3     1     4    1.0361E+00 -1.9390E-01   1.2300E+00  0.000E+00  0.000E+00  0.000E+00  2.90000E+01  0.000E+00  1.000E+01  4.637E-01 -4.182E-01
   1    4    4     1     5    1.2300E+00 -4.1020E-01   1.6402E+00  0.000E+00  0.000E+00  0.000E+00  2.90000E+01  0.000E+00  1.000E+01  9.314E-01 -4.404E-01
   1    3    4     1     6    1.6402E+00 -2.1024E-01   1.8505E+00  0.000E+00  0.000E+00  0.000E+00  2.90000E+01  0.000E+00  1.000E+01  5.028E-01 -4.181E-01
   1    3    5     1     7    1.8505E+00 -3.7518E-01   2.2256E+00  0.000E+00  0.000E+00  0.000E+00  2.90000E+01  0.000E+00  1.000E+01  8.439E-01 -4.446E-01
   1    3    7     2     1    2.2256E+00 -3.7022E-03   2.2294E+00  0.000E+00  0.000E+00  0.000E+00  2.90002E+01  1.840E-05  3.752E-06  7.626E-03 -4.855E-01
   1    3    8     2     2    2.2294E+00 -9.5152E-03   2.2389E+00  0.000E+00  0.000E+00  0.000E+00  2.87876E+01  2.573E-05  3.848E-06  1.336E-02 -7.124E-01
   1    4    8     2     3    2.2389E+00 -1.3783E-01   2.3767E+00  0.000E+00  0.000E+00  0.000E+00  2.85242E+01  1.209E-04  5.229E-06  1.392E-01 -9.900E-01
   1    5    8     2     4    2.3767E+00 -1.1914E-02   2.3886E+00  0.000E+00  0.000E+00  0.000E+00  2.82882E+01  2.778E-05  5.348E-06  9.573E-03 -1.245E+00
   1    5    9     2     5    2.3886E+00 -1.0780E-01   2.4964E+00  0.000E+00  0.000E+00  0.000E+00  2.80003E+01  9.424E-05  6.431E-06  6.982E-02 -1.544E+00
   1    6    2     1     1    0.0000E+00 -4.2182E-01   4.2182E-01  0.000E+00  0.000E+00  0.000E+00  2.90000E+01  0.000E+00  1.000E+01  9.257E-01 -4.557E-01
   1    5    2     1     2    4.2182E-01 -1.8274E-01   6.0456E-01  0.000E+00  0.000E+00  0.000E+00  2.90000E+01  0.000E+00  1.000E+01  4.246E-01 -4.304E-01
   1    5    3     1     3    6.0456E-01 -4.3157E-01   1.0361E+00  0.000E+00  0.000E+00  0.000E+00  2.90000E+01  0.000E+00  1.000E+01  9.705E-01 -4.447E-01
   1    4    3     1     4    1.0361E+00 -1.9390E-01   1.2300E+00  0.000E+00  0.000E+00  0.000E+00  2.90000E+01  0.000E+00  1.000E+01  4.637E-01 -4.182E-01
   1    4    4     1     5    1.2300E+00 -4.1020E-01   1.6402E+00  0.000E+00  0.000E+00  0.000E+00  2.90000E+01  0.000E+00  1.000E+01  9.314E-01 -4.404E-01
   1    3    4     1     6    1.6402E+00 -2.1024E-01   1.8505E+00  0.000E+00  0.000E+00  0.000E+00  2.90000E+01  0.000E+00  1.000E+01  5.028E-01 -4.181E-01
   1    3    5     1     7    1.8505E+00 -3.7518E-01   2.2256E+00  0.000E+00  0.000E+00  0.000E+00  2.90000E+01  0.000E+00  1.000E+01  8.439E-01 -4.446E-01
   1    3    7     2     1    2.2256E+00 -3.7022E-03   2.2294E+00  0.000E+00  0.000E+00  0.000E+00  2.90002E+01  1.840E-05  3.752E-06  7.626E-03 -4.855E-01
   1    3    8     2     2    2.2294E+00 -9.5152E-03   2.2389E+00  0.000E+00  0.000E+00  0.000E+00  2.87876E+01  2.573E-05  3.848E-06  1.336E-02 -7.124E-01
   1    4    8     2     3    2.2389E+00 -1.3783E-01   2.3767E+00  0.000E+00  0.000E+00  0.000E+00  2.85242E+01  1.209E-04  5.229E-06  1.392E-01 -9.900E-01
   1    5    8     2     4    2.3767E+00 -1.1914E-02   2.3886E+00  0.000E+00  0.000E+00  0.000E+00  2.82882E+01  2.778E-05  5.348E-06  9.573E-03 -1.245E+00
   1    5    9     2     5    2.3886E+00 -1.0780E-01   2.4964E+00  0.000E+00  0.000E+00  0.000E+00  2.80003E+01  9.424E-05  6.431E-06  6.982E-02 -1.544E+00
   1    6    2     1     1    0.0000E+00 -4.2182E-01   4.2182E-01  0.000E+00  0.000E+00  0.000E+00  2.90000E+01  0.000E+00  1.000E+01  9.257E-01 -4.557E-01
   1    5    2     1     2    4.2182E-01 -1.8274E-01   6.0456E-01  0.000E+00  0.000E+00  0.000E+00  2.90000E+01  0.000E+00  1.000E+01  4.246E-01 -4.304E-01
   1    5    3     1     3    6.0456E-01 -4.3157E-01   1.0361E+00  0.000E+00  0.000E+00  0.000E+00  2.90000E+01  0.000E+00  1.000E+01  9.705E-01 -4.447E-01
   1    4    3     1     4    1.0361E+00 -1.9390E-01   1.2300E+00  0.000E+00  0.000E+00  0.000E+00  2.90000E+01  0.000E+00  1.000E+01  4.637E-01 -4.182E-01
   1    4    4     1     5    1.2300E+00 -4.1020E-01   1.6402E+00  0.000E+00  0.000E+00  0.000E+00  2.90000E+01  0.000E+00  1.000E+01  9.314E-01 -4.404E-01
   1    3    4     1     6    1.6402E+00 -2.1024E-01   1.8505E+00  0.000E+00  0.000E+00  0.000E+00  2.90000E+01  0.000E+00  1.000E+01  5.028E-01 -4.181E-01
   1    3    5     1     7    1.8505E+00 -3.7518E-01   2.2256E+00  0.000E+00  0.000E+00  0.000E+00  2.90000E+01  0.000E+00  1.000E+01  8.439E-01 -4.446E-01
   1    3    7     2     1    2.2256E+00 -3.7022E-03   2.2294E+00  0.000E+00  0.000E+00  0.000E+00  2.90002E+01  1.840E-05  3.752E-06  7.626E-03 -4.855E-01
   1    3    8     2     2    2.2294E+00 -9.5152E-03   2.2389E+00  0.000E+00  0.000E+00  0.000E+00  2.87876E+01  2.573E-05  3.848E-06  1.336E-02 -7.124E-01
   1    4    8     2     3    2.2389E+00 -1.3783E-01   2.3767E+00  0.000E+00  0.000E+00  0.000E+00  2.85242E+01  1.209E-04  5.229E-06  1.392E-01 -9.900E-01
   1    5    8     2     4    2.3767E+00 -1.1914E-02   2.3886E+00  0.000E+00  0.000E+00  0.000E+00  2.82882E+01  2.778E-05  5.348E-06  9.573E-03 -1.245E+00
   1    5    9     2     5    2.3886E+00 -1.0780E-01   2.4964E+00  0.000E+00  0.000E+00  0.000E+00  2.80003E+01  9.424E-05  6.431E-06  6.982E-02 -1.544E+00




 HEAD WILL BE SAVED ON UNIT   37 AT END OF TIME STEP    1, STRESS PERIOD    3

 DRAWDOWN WILL BE SAVED ON UNIT   38 AT END OF TIME STEP    1, STRESS PERIOD    3
1
  VOLUMETRIC BUDGET FOR ENTIRE MODEL AT END OF TIME STEP    1, STRESS PERIOD   3
  ------------------------------------------------------------------------------

     CUMULATIVE VOLUMES      L**3       RATES FOR THIS TIME STEP      L**3/T
     ------------------                 ------------------------

           IN:                                      IN:
           ---                                      ---
             STORAGE =       4.5765E-02               STORAGE =       3.4180E-03
       CONSTANT HEAD =        1002.0787         CONSTANT HEAD =         668.1478
      STREAM LEAKAGE =           0.1539        STREAM LEAKAGE =           0.6157

            TOTAL IN =        1002.2784              TOTAL IN =         668.7669

          OUT:                                     OUT:
          ----                                     ----
             STORAGE =       2.1463E-02               STORAGE =       8.5831E-02
       CONSTANT HEAD =        1001.7426         CONSTANT HEAD =         667.7577
      STREAM LEAKAGE =          12.4105        STREAM LEAKAGE =          23.7293

           TOTAL OUT =        1014.1745             TOTAL OUT =         691.5728

            IN - OUT =         -11.8961              IN - OUT =         -22.8059

 PERCENT DISCREPANCY =          -1.18     PERCENT DISCREPANCY =          -3.35






         TIME SUMMARY AT END OF TIME STEP    1 IN STRESS PERIOD    3
                    SECONDS     MINUTES      HOURS       DAYS        YEARS
                    -----------------------------------------------------------
   TIME STEP LENGTH 0.25000     4.16667E-03 6.94444E-05 2.89352E-06 7.92202E-09
 STRESS PERIOD TIME 0.25000     4.16667E-03 6.94444E-05 2.89352E-06 7.92202E-09
         TOTAL TIME  1.5000     2.50000E-02 4.16667E-04 1.73611E-05 4.75321E-08
1
1
                            STRESS PERIOD NO.    4, LENGTH =  0.5000000    
                            -----------------------------------------------

                              NUMBER OF TIME STEPS =     1

                               MULTIPLIER FOR DELT =     1.000

                            INITIAL TIME STEP SIZE =  0.5000000    

 REUSING NON-PARAMETER SPECIFIED-HEAD DATA FROM LAST STRESS PERIOD


      2 TIME-VARIANT SPECIFIED-HEAD CELLS



 CLASSIFICATION & COUNT OF STREAM SEGMENTS BASED ON SOURCE OF INFLOW:

                HEADWATER     DIVERSION     RECEIVES TRIBUTARY FLOW
                ---------     ---------     -----------------------
                     1              0               1



                    INPUT DATA FOR EACH STREAM SEGMENT
 ---------------------------------------------------------------------------------------------

 SEGMENT    SEG.     INFLOW   OVERLAND   STREAM    STREAM   ICALC  OUTFLOW  DIVERSION PRIORITY
    NO.    LENGTH     RATE     RUNOFF      ET       PPT.    METH.  TO SEG.  FROM SEG.    NO.

      1  5.062E+02 0.000E+00 0.000E+00 0.000E+00 0.000E+00    4        2        0        0
      2  3.171E+02 0.000E+00 0.000E+00 0.000E+00 0.000E+00    3        0        0        0


         STREAMBED PROPERTIES AND STREAM DIMENSIONS

 SEGMENT     WIDTH OF STREAM     DEPTH OF STREAM    STREAM ROUGHNESS
    No.     UPPER     LOWER     UPPER     LOWER     CHANNEL      BANK


 STREAMFLOW RELATION WITH DEPTH IS BASED ON EQUATION Q = CDPTH*(DEPTH)**FDPTH
 STREAMFLOW RELATION WITH WIDTH IS BASED ON EQUATION Q = AWDTH*(WIDTH)**BWDTH

 SEGMENT NO.      CDPTH     FDPTH    AWDTH     BWDTH

          2 1.000E-04 1.010E+00 1.000E-05 1.010E+00

 STREAMFLOW RELATION WITH DEPTH AND WIDTH IS BASED ON TABULATED VALUES

  SEGMENT NO.   STREAMFLOW       DEPTH       WIDTH

          1     1.0000E+00   1.0000E+00   1.0000E+00
          1     2.0000E+00   2.0000E+00   2.0000E+00



 
 SOLVING FOR HEAD 


     1 CALLS TO PCG ROUTINE FOR TIME STEP     1 IN STRESS PERIOD    4
     1 TOTAL ITERATIONS

 MAXIMUM HEAD CHANGE FOR EACH ITERATION (1 INDICATES THE FIRST INNER ITERATION):

    HEAD CHANGE    HEAD CHANGE    HEAD CHANGE    HEAD CHANGE    HEAD CHANGE 
   LAYER,ROW,COL  LAYER,ROW,COL  LAYER,ROW,COL  LAYER,ROW,COL  LAYER,ROW,COL
 ---------------------------------------------------------------------------
  1 -0.1388E-03
   (  3, 10,  1)

 MAXIMUM RESIDUAL FOR EACH ITERATION (1 INDICATES THE FIRST INNER ITERATION):

    RESIDUAL       RESIDUAL       RESIDUAL       RESIDUAL       RESIDUAL    
   LAYER,ROW,COL  LAYER,ROW,COL  LAYER,ROW,COL  LAYER,ROW,COL  LAYER,ROW,COL
 ---------------------------------------------------------------------------
  1  0.3226    
   (  1, 10,  9)



 OUTPUT CONTROL FOR STRESS PERIOD    4   TIME STEP    1
    SAVE HEAD FOR ALL LAYERS
    SAVE DRAWDOWN FOR ALL LAYERS
    SAVE BUDGET
    PRINT BUDGET
 UBDSV1 SAVING "         STORAGE" ON UNIT   9 AT TIME STEP     1, STRESS PERIOD   4
 UBDSV2 SAVING "   CONSTANT HEAD" ON UNIT   9 AT TIME STEP     1, STRESS PERIOD   4
 UBDSV1 SAVING "FLOW RIGHT FACE " ON UNIT   9 AT TIME STEP     1, STRESS PERIOD   4
 UBDSV1 SAVING "FLOW FRONT FACE " ON UNIT   9 AT TIME STEP     1, STRESS PERIOD   4
 UBDSV1 SAVING "FLOW LOWER FACE " ON UNIT   9 AT TIME STEP     1, STRESS PERIOD   4
 UBDSV4 SAVING "  STREAM LEAKAGE" ON UNIT   9 AT TIME STEP     1, STRESS PERIOD   4



 STREAM LISTING     PERIOD      4   STEP        1

 LAYER ROW COL. STREAM  RCH.  FLOW INTO     FLOW TO   FLOW OUT OF   OVRLND.     DIRECT     STREAM       STREAM     STREAM     STREAM   STREAMBED  STREAMBED
                SEG.NO.  NO.  STRM. RCH.    AQUIFER    STRM. RCH.    RUNOFF     PRECIP       ET          HEAD       DEPTH      WIDTH   CONDCTNC.   GRADIENT

   1    6    2     1     1    0.0000E+00 -2.5847E-06   4.2128E-01  0.000E+00  0.000E+00  0.000E+00  2.90001E+01  6.129E-05  4.164E-01  5.673E-06 -4.556E-01
   1    5    2     1     2    4.2128E-01 -1.5966E-04   6.0457E-01  0.000E+00  0.000E+00  0.000E+00  2.94165E+01  4.214E-01  6.048E-01  1.768E-02 -9.028E-03
   1    5    3     1     3    6.0457E-01  9.0492E-03   1.0359E+00  0.000E+00  0.000E+00  0.000E+00  2.96002E+01  6.000E-01  1.034E+00  5.824E-02  1.554E-01
   1    4    3     1     4    1.0359E+00  2.8529E-02   1.2300E+00  0.000E+00  0.000E+00  0.000E+00  3.00196E+01  1.022E+00  1.230E+00  4.728E-02  6.034E-01
   1    4    4     1     5    1.2300E+00  8.2820E-02   1.6401E+00  0.000E+00  0.000E+00  0.000E+00  3.01886E+01  1.189E+00  1.639E+00  1.107E-01  7.482E-01
   1    3    4     1     6    1.6401E+00  9.4020E-02   1.8504E+00  0.000E+00  0.000E+00  0.000E+00  3.05917E+01  1.593E+00  1.850E+00  8.003E-02  1.175E+00
   1    3    5     1     7    1.8504E+00  1.9368E-01   2.2255E+00  0.000E+00  0.000E+00  0.000E+00  3.07534E+01  1.754E+00  2.224E+00  1.480E-01  1.309E+00
   1    3    7     2     1    2.2255E+00 -3.0204E-02   2.2557E+00  0.000E+00  0.000E+00  0.000E+00  2.90002E+01  1.502E-04  2.273E-05  6.223E-02 -4.854E-01
   1    3    8     2     2    2.2557E+00 -8.4610E-02   2.3403E+00  0.000E+00  0.000E+00  0.000E+00  2.87876E+01  2.290E-04  2.359E-05  1.188E-01 -7.121E-01
   1    4    8     2     3    2.3403E+00 -2.7269E-01   2.6130E+00  0.000E+00  0.000E+00  0.000E+00  2.85242E+01  2.393E-04  2.637E-05  2.755E-01 -9.899E-01
   1    5    8     2     4    2.6130E+00 -1.1409E-01   2.7271E+00  0.000E+00  0.000E+00  0.000E+00  2.82882E+01  2.662E-04  2.753E-05  9.170E-02 -1.244E+00
   1    5    9     2     5    2.7271E+00 -3.4465E-01   3.0718E+00  0.000E+00  0.000E+00  0.000E+00  2.80003E+01  3.015E-04  3.105E-05  2.233E-01 -1.544E+00
   1    6    2     1     1    0.0000E+00 -2.5847E-06   4.2074E-01  0.000E+00  0.000E+00  0.000E+00  2.94213E+01  6.129E-05  4.164E-01  5.673E-06 -4.556E-01
   1    5    2     1     2    4.2074E-01 -1.6913E-04   6.0459E-01  0.000E+00  0.000E+00  0.000E+00  2.96046E+01  4.208E-01  6.048E-01  1.768E-02 -9.563E-03
   1    5    3     1     3    6.0459E-01  9.0502E-03   1.0357E+00  0.000E+00  0.000E+00  0.000E+00  3.00359E+01  6.001E-01  1.034E+00  5.824E-02  1.554E-01
   1    4    3     1     4    1.0357E+00  2.8519E-02   1.2300E+00  0.000E+00  0.000E+00  0.000E+00  3.02301E+01  1.021E+00  1.230E+00  4.728E-02  6.032E-01
   1    4    4     1     5    1.2300E+00  8.2820E-02   1.6399E+00  0.000E+00  0.000E+00  0.000E+00  3.06402E+01  1.189E+00  1.639E+00  1.107E-01  7.482E-01
   1    3    4     1     6    1.6399E+00  9.4008E-02   1.8504E+00  0.000E+00  0.000E+00  0.000E+00  3.08505E+01  1.593E+00  1.850E+00  8.003E-02  1.175E+00
   1    3    5     1     7    1.8504E+00  1.9368E-01   2.2254E+00  0.000E+00  0.000E+00  0.000E+00  3.12256E+01  1.754E+00  2.224E+00  1.480E-01  1.309E+00
   1    3    7     2     1    2.2254E+00 -3.0204E-02   2.2556E+00  0.000E+00  0.000E+00  0.000E+00  2.90002E+01  1.502E-04  2.273E-05  6.223E-02 -4.854E-01
   1    3    8     2     2    2.2556E+00 -8.4610E-02   2.3402E+00  0.000E+00  0.000E+00  0.000E+00  2.87876E+01  2.289E-04  2.359E-05  1.188E-01 -7.121E-01
   1    4    8     2     3    2.3402E+00 -2.7269E-01   2.6129E+00  0.000E+00  0.000E+00  0.000E+00  2.85242E+01  2.393E-04  2.637E-05  2.755E-01 -9.899E-01
   1    5    8     2     4    2.6129E+00 -1.1409E-01   2.7270E+00  0.000E+00  0.000E+00  0.000E+00  2.82883E+01  2.662E-04  2.753E-05  9.170E-02 -1.244E+00
   1    5    9     2     5    2.7270E+00 -3.4465E-01   3.0716E+00  0.000E+00  0.000E+00  0.000E+00  2.80003E+01  3.015E-04  3.105E-05  2.233E-01 -1.544E+00
   1    6    2     1     1    0.0000E+00 -2.5847E-06   4.2020E-01  0.000E+00  0.000E+00  0.000E+00  2.94208E+01  6.129E-05  4.164E-01  5.673E-06 -4.556E-01
   1    5    2     1     2    4.2020E-01 -1.7860E-04   6.0461E-01  0.000E+00  0.000E+00  0.000E+00  2.96047E+01  4.203E-01  6.048E-01  1.768E-02 -1.010E-02
   1    5    3     1     3    6.0461E-01  9.0511E-03   1.0354E+00  0.000E+00  0.000E+00  0.000E+00  3.00357E+01  6.001E-01  1.034E+00  5.824E-02  1.554E-01
   1    4    3     1     4    1.0354E+00  2.8509E-02   1.2300E+00  0.000E+00  0.000E+00  0.000E+00  3.02301E+01  1.021E+00  1.230E+00  4.728E-02  6.030E-01
   1    4    4     1     5    1.2300E+00  8.2820E-02   1.6397E+00  0.000E+00  0.000E+00  0.000E+00  3.06400E+01  1.189E+00  1.639E+00  1.107E-01  7.482E-01
   1    3    4     1     6    1.6397E+00  9.3997E-02   1.8504E+00  0.000E+00  0.000E+00  0.000E+00  3.08504E+01  1.593E+00  1.850E+00  8.003E-02  1.175E+00
   1    3    5     1     7    1.8504E+00  1.9368E-01   2.2253E+00  0.000E+00  0.000E+00  0.000E+00  3.12254E+01  1.754E+00  2.224E+00  1.480E-01  1.309E+00
   1    3    7     2     1    2.2253E+00 -3.0204E-02   2.2555E+00  0.000E+00  0.000E+00  0.000E+00  2.90002E+01  1.502E-04  2.273E-05  6.223E-02 -4.854E-01
   1    3    8     2     2    2.2555E+00 -8.4610E-02   2.3401E+00  0.000E+00  0.000E+00  0.000E+00  2.87876E+01  2.289E-04  2.359E-05  1.188E-01 -7.121E-01
   1    4    8     2     3    2.3401E+00 -2.7269E-01   2.6128E+00  0.000E+00  0.000E+00  0.000E+00  2.85242E+01  2.393E-04  2.637E-05  2.755E-01 -9.899E-01
   1    5    8     2     4    2.6128E+00 -1.1409E-01   2.7268E+00  0.000E+00  0.000E+00  0.000E+00  2.82883E+01  2.662E-04  2.753E-05  9.170E-02 -1.244E+00
   1    5    9     2     5    2.7268E+00 -3.4465E-01   3.0715E+00  0.000E+00  0.000E+00  0.000E+00  2.80003E+01  3.015E-04  3.105E-05  2.233E-01 -1.544E+00
   1    6    2     1     1    0.0000E+00 -2.5847E-06   4.1966E-01  0.000E+00  0.000E+00  0.000E+00  2.94202E+01  6.129E-05  4.164E-01  5.673E-06 -4.556E-01
   1    5    2     1     2    4.1966E-01 -1.8807E-04   6.0462E-01  0.000E+00  0.000E+00  0.000E+00  2.96047E+01  4.197E-01  6.048E-01  1.768E-02 -1.063E-02
   1    5    3     1     3    6.0462E-01  9.0519E-03   1.0352E+00  0.000E+00  0.000E+00  0.000E+00  3.00355E+01  6.001E-01  1.034E+00  5.824E-02  1.554E-01
   1    4    3     1     4    1.0352E+00  2.8498E-02   1.2300E+00  0.000E+00  0.000E+00  0.000E+00  3.02301E+01  1.021E+00  1.230E+00  4.728E-02  6.028E-01
   1    4    4     1     5    1.2300E+00  8.2819E-02   1.6396E+00  0.000E+00  0.000E+00  0.000E+00  3.06398E+01  1.189E+00  1.639E+00  1.107E-01  7.481E-01
   1    3    4     1     6    1.6396E+00  9.3985E-02   1.8504E+00  0.000E+00  0.000E+00  0.000E+00  3.08504E+01  1.593E+00  1.850E+00  8.003E-02  1.174E+00
   1    3    5     1     7    1.8504E+00  1.9367E-01   2.2251E+00  0.000E+00  0.000E+00  0.000E+00  3.12253E+01  1.754E+00  2.224E+00  1.480E-01  1.309E+00
   1    3    7     2     1    2.2251E+00 -3.0204E-02   2.2553E+00  0.000E+00  0.000E+00  0.000E+00  2.90002E+01  1.502E-04  2.273E-05  6.223E-02 -4.854E-01
   1    3    8     2     2    2.2553E+00 -8.4610E-02   2.3399E+00  0.000E+00  0.000E+00  0.000E+00  2.87876E+01  2.289E-04  2.359E-05  1.188E-01 -7.121E-01
   1    4    8     2     3    2.3399E+00 -2.7269E-01   2.6126E+00  0.000E+00  0.000E+00  0.000E+00  2.85242E+01  2.393E-04  2.637E-05  2.755E-01 -9.899E-01
   1    5    8     2     4    2.6126E+00 -1.1409E-01   2.7267E+00  0.000E+00  0.000E+00  0.000E+00  2.82883E+01  2.662E-04  2.753E-05  9.170E-02 -1.244E+00
   1    5    9     2     5    2.7267E+00 -3.4465E-01   3.0714E+00  0.000E+00  0.000E+00  0.000E+00  2.80003E+01  3.015E-04  3.105E-05  2.233E-01 -1.544E+00
   1    6    2     1     1    0.0000E+00 -2.5847E-06   4.1912E-01  0.000E+00  0.000E+00  0.000E+00  2.94197E+01  6.129E-05  4.164E-01  5.673E-06 -4.556E-01
   1    5    2     1     2    4.1912E-01 -1.9754E-04   6.0464E-01  0.000E+00  0.000E+00  0.000E+00  2.96047E+01  4.192E-01  6.048E-01  1.768E-02 -1.117E-02
   1    5    3     1     3    6.0464E-01  9.0527E-03   1.0350E+00  0.000E+00  0.000E+00  0.000E+00  3.00352E+01  6.001E-01  1.034E+00  5.824E-02  1.554E-01
   1    4    3     1     4    1.0350E+00  2.8488E-02   1.2300E+00  0.000E+00  0.000E+00  0.000E+00  3.02300E+01  1.021E+00  1.230E+00  4.728E-02  6.025E-01
   1    4    4     1     5    1.2300E+00  8.2819E-02   1.6394E+00  0.000E+00  0.000E+00  0.000E+00  3.06397E+01  1.189E+00  1.639E+00  1.107E-01  7.481E-01
   1    3    4     1     6    1.6394E+00  9.3973E-02   1.8504E+00  0.000E+00  0.000E+00  0.000E+00  3.08504E+01  1.592E+00  1.850E+00  8.003E-02  1.174E+00
   1    3    5     1     7    1.8504E+00  1.9367E-01   2.2250E+00  0.000E+00  0.000E+00  0.000E+00  3.12252E+01  1.754E+00  2.224E+00  1.480E-01  1.309E+00
   1    3    7     2     1    2.2250E+00 -3.0204E-02   2.2552E+00  0.000E+00  0.000E+00  0.000E+00  2.90002E+01  1.502E-04  2.273E-05  6.223E-02 -4.854E-01
   1    3    8     2     2    2.2552E+00 -8.4610E-02   2.3398E+00  0.000E+00  0.000E+00  0.000E+00  2.87876E+01  2.289E-04  2.359E-05  1.188E-01 -7.121E-01
   1    4    8     2     3    2.3398E+00 -2.7269E-01   2.6125E+00  0.000E+00  0.000E+00  0.000E+00  2.85242E+01  2.393E-04  2.637E-05  2.755E-01 -9.899E-01
   1    5    8     2     4    2.6125E+00 -1.1409E-01   2.7266E+00  0.000E+00  0.000E+00  0.000E+00  2.82883E+01  2.662E-04  2.753E-05  9.170E-02 -1.244E+00
   1    5    9     2     5    2.7266E+00 -3.4465E-01   3.0712E+00  0.000E+00  0.000E+00  0.000E+00  2.80003E+01  3.014E-04  3.105E-05  2.233E-01 -1.544E+00
   1    6    2     1     1    0.0000E+00 -2.5847E-06   4.1858E-01  0.000E+00  0.000E+00  0.000E+00  2.94191E+01  6.129E-05  4.164E-01  5.673E-06 -4.556E-01
   1    5    2     1     2    4.1858E-01 -2.0701E-04   6.0465E-01  0.000E+00  0.000E+00  0.000E+00  2.96047E+01  4.187E-01  6.048E-01  1.768E-02 -1.171E-02
   1    5    3     1     3    6.0465E-01  9.0534E-03   1.0348E+00  0.000E+00  0.000E+00  0.000E+00  3.00350E+01  6.001E-01  1.034E+00  5.824E-02  1.554E-01
   1    4    3     1     4    1.0348E+00  2.8478E-02   1.2300E+00  0.000E+00  0.000E+00  0.000E+00  3.02300E+01  1.021E+00  1.230E+00  4.728E-02  6.023E-01
   1    4    4     1     5    1.2300E+00  8.2818E-02   1.6393E+00  0.000E+00  0.000E+00  0.000E+00  3.06395E+01  1.189E+00  1.639E+00  1.107E-01  7.481E-01
   1    3    4     1     6    1.6393E+00  9.3961E-02   1.8503E+00  0.000E+00  0.000E+00  0.000E+00  3.08504E+01  1.592E+00  1.850E+00  8.003E-02  1.174E+00
   1    3    5     1     7    1.8503E+00  1.9367E-01   2.2249E+00  0.000E+00  0.000E+00  0.000E+00  3.12250E+01  1.753E+00  2.224E+00  1.480E-01  1.309E+00
   1    3    7     2     1    2.2249E+00 -3.0204E-02   2.2551E+00  0.000E+00  0.000E+00  0.000E+00  2.90002E+01  1.502E-04  2.273E-05  6.223E-02 -4.854E-01
   1    3    8     2     2    2.2551E+00 -8.4610E-02   2.3397E+00  0.000E+00  0.000E+00  0.000E+00  2.87876E+01  2.289E-04  2.359E-05  1.188E-01 -7.121E-01
   1    4    8     2     3    2.3397E+00 -2.7269E-01   2.6124E+00  0.000E+00  0.000E+00  0.000E+00  2.85242E+01  2.392E-04  2.637E-05  2.755E-01 -9.899E-01
   1    5    8     2     4    2.6124E+00 -1.1409E-01   2.7265E+00  0.000E+00  0.000E+00  0.000E+00  2.82883E+01  2.661E-04  2.753E-05  9.170E-02 -1.244E+00
   1    5    9     2     5    2.7265E+00 -3.4465E-01   3.0711E+00  0.000E+00  0.000E+00  0.000E+00  2.80003E+01  3.014E-04  3.105E-05  2.233E-01 -1.544E+00
   1    6    2     1     1    0.0000E+00 -2.5847E-06   4.1804E-01  0.000E+00  0.000E+00  0.000E+00  2.94186E+01  6.129E-05  4.164E-01  5.673E-06 -4.556E-01
   1    5    2     1     2    4.1804E-01 -2.1648E-04   6.0466E-01  0.000E+00  0.000E+00  0.000E+00  2.96047E+01  4.181E-01  6.048E-01  1.768E-02 -1.224E-02
   1    5    3     1     3    6.0466E-01  9.0540E-03   1.0345E+00  0.000E+00  0.000E+00  0.000E+00  3.00348E+01  6.001E-01  1.034E+00  5.824E-02  1.554E-01
   1    4    3     1     4    1.0345E+00  2.8467E-02   1.2300E+00  0.000E+00  0.000E+00  0.000E+00  3.02300E+01  1.020E+00  1.230E+00  4.728E-02  6.021E-01
   1    4    4     1     5    1.2300E+00  8.2817E-02   1.6391E+00  0.000E+00  0.000E+00  0.000E+00  3.06394E+01  1.189E+00  1.639E+00  1.107E-01  7.481E-01
   1    3    4     1     6    1.6391E+00  9.3950E-02   1.8503E+00  0.000E+00  0.000E+00  0.000E+00  3.08504E+01  1.592E+00  1.850E+00  8.003E-02  1.174E+00
   1    3    5     1     7    1.8503E+00  1.9366E-01   2.2247E+00  0.000E+00  0.000E+00  0.000E+00  3.12249E+01  1.753E+00  2.224E+00  1.480E-01  1.309E+00
   1    3    7     2     1    2.2247E+00 -3.0204E-02   2.2549E+00  0.000E+00  0.000E+00  0.000E+00  2.90002E+01  1.502E-04  2.273E-05  6.223E-02 -4.854E-01
   1    3    8     2     2    2.2549E+00 -8.4610E-02   2.3395E+00  0.000E+00  0.000E+00  0.000E+00  2.87876E+01  2.289E-04  2.359E-05  1.188E-01 -7.121E-01
   1    4    8     2     3    2.3395E+00 -2.7269E-01   2.6122E+00  0.000E+00  0.000E+00  0.000E+00  2.85242E+01  2.392E-04  2.637E-05  2.755E-01 -9.899E-01
   1    5    8     2     4    2.6122E+00 -1.1409E-01   2.7263E+00  0.000E+00  0.000E+00  0.000E+00  2.82883E+01  2.661E-04  2.753E-05  9.170E-02 -1.244E+00
   1    5    9     2     5    2.7263E+00 -3.4465E-01   3.0710E+00  0.000E+00  0.000E+00  0.000E+00  2.80003E+01  3.014E-04  3.105E-05  2.233E-01 -1.544E+00
   1    6    2     1     1    0.0000E+00 -2.5847E-06   4.1750E-01  0.000E+00  0.000E+00  0.000E+00  2.94181E+01  6.129E-05  4.164E-01  5.673E-06 -4.556E-01
   1    5    2     1     2    4.1750E-01 -2.2595E-04   6.0467E-01  0.000E+00  0.000E+00  0.000E+00  2.96047E+01  4.176E-01  6.048E-01  1.768E-02 -1.278E-02
   1    5    3     1     3    6.0467E-01  9.0544E-03   1.0343E+00  0.000E+00  0.000E+00  0.000E+00  3.00346E+01  6.001E-01  1.034E+00  5.824E-02  1.555E-01
   1    4    3     1     4    1.0343E+00  2.8457E-02   1.2300E+00  0.000E+00  0.000E+00  0.000E+00  3.02300E+01  1.020E+00  1.230E+00  4.728E-02  6.019E-01
   1    4    4     1     5    1.2300E+00  8.2817E-02   1.6390E+00  0.000E+00  0.000E+00  0.000E+00  3.06392E+01  1.189E+00  1.639E+00  1.107E-01  7.481E-01
   1    3    4     1     6    1.6390E+00  9.3938E-02   1.8503E+00  0.000E+00  0.000E+00  0.000E+00  3.08503E+01  1.592E+00  1.850E+00  8.003E-02  1.174E+00
   1    3    5     1     7    1.8503E+00  1.9366E-01   2.2246E+00  0.000E+00  0.000E+00  0.000E+00  3.12248E+01  1.753E+00  2.224E+00  1.480E-01  1.309E+00
   1    3    7     2     1    2.2246E+00 -3.0204E-02   2.2548E+00  0.000E+00  0.000E+00  0.000E+00  2.90002E+01  1.501E-04  2.273E-05  6.223E-02 -4.854E-01
   1    3    8     2     2    2.2548E+00 -8.4610E-02   2.3394E+00  0.000E+00  0.000E+00  0.000E+00  2.87876E+01  2.289E-04  2.359E-05  1.188E-01 -7.121E-01
   1    4    8     2     3    2.3394E+00 -2.7269E-01   2.6121E+00  0.000E+00  0.000E+00  0.000E+00  2.85242E+01  2.392E-04  2.637E-05  2.755E-01 -9.899E-01
   1    5    8     2     4    2.6121E+00 -1.1409E-01   2.7262E+00  0.000E+00  0.000E+00  0.000E+00  2.82883E+01  2.661E-04  2.753E-05  9.170E-02 -1.244E+00
   1    5    9     2     5    2.7262E+00 -3.4465E-01   3.0708E+00  0.000E+00  0.000E+00  0.000E+00  2.80003E+01  3.014E-04  3.105E-05  2.233E-01 -1.544E+00
   1    6    2     1     1    0.0000E+00 -2.5847E-06   4.1696E-01  0.000E+00  0.000E+00  0.000E+00  2.94175E+01  6.129E-05  4.164E-01  5.673E-06 -4.556E-01
   1    5    2     1     2    4.1696E-01 -2.3542E-04   6.0468E-01  0.000E+00  0.000E+00  0.000E+00  2.96047E+01  4.171E-01  6.048E-01  1.768E-02 -1.331E-02
   1    5    3     1     3    6.0468E-01  9.0549E-03   1.0341E+00  0.000E+00  0.000E+00  0.000E+00  3.00343E+01  6.001E-01  1.034E+00  5.824E-02  1.555E-01
   1    4    3     1     4    1.0341E+00  2.8447E-02   1.2300E+00  0.000E+00  0.000E+00  0.000E+00  3.02300E+01  1.020E+00  1.230E+00  4.728E-02  6.017E-01
   1    4    4     1     5    1.2300E+00  8.2816E-02   1.6388E+00  0.000E+00  0.000E+00  0.000E+00  3.06390E+01  1.189E+00  1.639E+00  1.107E-01  7.481E-01
   1    3    4     1     6    1.6388E+00  9.3927E-02   1.8502E+00  0.000E+00  0.000E+00  0.000E+00  3.08503E+01  1.592E+00  1.850E+00  8.003E-02  1.174E+00
   1    3    5     1     7    1.8502E+00  1.9366E-01   2.2245E+00  0.000E+00  0.000E+00  0.000E+00  3.12246E+01  1.753E+00  2.224E+00  1.480E-01  1.309E+00
   1    3    7     2     1    2.2245E+00 -3.0204E-02   2.2547E+00  0.000E+00  0.000E+00  0.000E+00  2.90002E+01  1.501E-04  2.273E-05  6.223E-02 -4.854E-01
   1    3    8     2     2    2.2547E+00 -8.4610E-02   2.3393E+00  0.000E+00  0.000E+00  0.000E+00  2.87876E+01  2.288E-04  2.359E-05  1.188E-01 -7.121E-01
   1    4    8     2     3    2.3393E+00 -2.7269E-01   2.6120E+00  0.000E+00  0.000E+00  0.000E+00  2.85242E+01  2.392E-04  2.637E-05  2.755E-01 -9.899E-01
   1    5    8     2     4    2.6120E+00 -1.1409E-01   2.7261E+00  0.000E+00  0.000E+00  0.000E+00  2.82883E+01  2.661E-04  2.753E-05  9.170E-02 -1.244E+00
   1    5    9     2     5    2.7261E+00 -3.4465E-01   3.0707E+00  0.000E+00  0.000E+00  0.000E+00  2.80003E+01  3.014E-04  3.105E-05  2.233E-01 -1.544E+00
   1    6    2     1     1    0.0000E+00 -2.5847E-06   4.1642E-01  0.000E+00  0.000E+00  0.000E+00  2.94170E+01  6.129E-05  4.164E-01  5.673E-06 -4.556E-01
   1    5    2     1     2    4.1642E-01 -2.4489E-04   6.0468E-01  0.000E+00  0.000E+00  0.000E+00  2.96048E+01  4.165E-01  6.048E-01  1.768E-02 -1.385E-02
   1    5    3     1     3    6.0468E-01  9.0552E-03   1.0339E+00  0.000E+00  0.000E+00  0.000E+00  3.00341E+01  6.002E-01  1.034E+00  5.824E-02  1.555E-01
   1    4    3     1     4    1.0339E+00  2.8437E-02   1.2300E+00  0.000E+00  0.000E+00  0.000E+00  3.02300E+01  1.020E+00  1.230E+00  4.728E-02  6.015E-01
   1    4    4     1     5    1.2300E+00  8.2815E-02   1.6387E+00  0.000E+00  0.000E+00  0.000E+00  3.06389E+01  1.189E+00  1.639E+00  1.107E-01  7.481E-01
   1    3    4     1     6    1.6387E+00  9.3915E-02   1.8502E+00  0.000E+00  0.000E+00  0.000E+00  3.08503E+01  1.592E+00  1.850E+00  8.003E-02  1.173E+00
   1    3    5     1     7    1.8502E+00  1.9365E-01   2.2243E+00  0.000E+00  0.000E+00  0.000E+00  3.12245E+01  1.753E+00  2.224E+00  1.480E-01  1.309E+00
   1    3    7     2     1    2.2243E+00 -3.0204E-02   2.2545E+00  0.000E+00  0.000E+00  0.000E+00  2.90002E+01  1.501E-04  2.273E-05  6.223E-02 -4.854E-01
   1    3    8     2     2    2.2545E+00 -8.4610E-02   2.3392E+00  0.000E+00  0.000E+00  0.000E+00  2.87876E+01  2.288E-04  2.359E-05  1.188E-01 -7.121E-01
   1    4    8     2     3    2.3392E+00 -2.7269E-01   2.6118E+00  0.000E+00  0.000E+00  0.000E+00  2.85242E+01  2.392E-04  2.637E-05  2.755E-01 -9.899E-01
   1    5    8     2     4    2.6118E+00 -1.1409E-01   2.7259E+00  0.000E+00  0.000E+00  0.000E+00  2.82883E+01  2.661E-04  2.753E-05  9.170E-02 -1.244E+00
   1    5    9     2     5    2.7259E+00 -3.4465E-01   3.0706E+00  0.000E+00  0.000E+00  0.000E+00  2.80003E+01  3.014E-04  3.105E-05  2.233E-01 -1.544E+00




 HEAD WILL BE SAVED ON UNIT   37 AT END OF TIME STEP    1, STRESS PERIOD    4

 DRAWDOWN WILL BE SAVED ON UNIT   38 AT END OF TIME STEP    1, STRESS PERIOD    4
1
  VOLUMETRIC BUDGET FOR ENTIRE MODEL AT END OF TIME STEP    1, STRESS PERIOD   4
  ------------------------------------------------------------------------------

     CUMULATIVE VOLUMES      L**3       RATES FOR THIS TIME STEP      L**3/T
     ------------------                 ------------------------

           IN:                                      IN:
           ---                                      ---
             STORAGE =       5.3520E-02               STORAGE =       1.5511E-02
       CONSTANT HEAD =        1336.1572         CONSTANT HEAD =         668.1569
      STREAM LEAKAGE =           2.1939        STREAM LEAKAGE =           4.0799

            TOTAL IN =        1338.4045              TOTAL IN =         672.2523

          OUT:                                     OUT:
          ----                                     ----
             STORAGE =       2.3352E-02               STORAGE =       3.7766E-03
       CONSTANT HEAD =        1335.6304         CONSTANT HEAD =         667.7756
      STREAM LEAKAGE =          16.6427        STREAM LEAKAGE =           8.4645

           TOTAL OUT =        1352.2964             TOTAL OUT =         676.2440

            IN - OUT =         -13.8918              IN - OUT =          -3.9917

 PERCENT DISCREPANCY =          -1.03     PERCENT DISCREPANCY =          -0.59






         TIME SUMMARY AT END OF TIME STEP    1 IN STRESS PERIOD    4
                    SECONDS     MINUTES      HOURS       DAYS        YEARS
                    -----------------------------------------------------------
   TIME STEP LENGTH 0.50000     8.33333E-03 1.38889E-04 5.78704E-06 1.58440E-08
 STRESS PERIOD TIME 0.50000     8.33333E-03 1.38889E-04 5.78704E-06 1.58440E-08
         TOTAL TIME  2.0000     3.33333E-02 5.55556E-04 2.31481E-05 6.33762E-08
1

 Run end date and time (yyyy/mm/dd hh:mm:ss): 2017/07/11 15:21:54
 Elapsed run time:  0.015 Seconds

