                                  MODFLOW-NWT-SWR1 
      U.S. GEOLOGICAL SURVEY MODULAR FINITE-DIFFERENCE GROUNDWATER-FLOW MODEL
                            VERSION 1.1.2, 9/15/2016
                    BASED ON MODFLOW-2005 VERSION 1.11.00 08/08/2013

 LIST FILE: .\uzftest_single_line_options\UzfTest.lst
                         UNIT   11

 OPENING .\uzftest_single_line_options\UzfTest.cbc
 FILE TYPE:DATA(BINARY)   UNIT    9   STATUS:REPLACE
 FORMAT:BINARY                 ACCESS:SEQUENTIAL          

 OPENING .\uzftest_single_line_options\UzfTest.dis
 FILE TYPE:DIS   UNIT   12   STATUS:OLD    
 FORMAT:FORMATTED              ACCESS:SEQUENTIAL          

 OPENING .\uzftest_single_line_options\UzfTest.bas
 FILE TYPE:BAS6   UNIT   13   STATUS:OLD    
 FORMAT:FORMATTED              ACCESS:SEQUENTIAL          

 OPENING .\uzftest_single_line_options\UzfTest.oc
 FILE TYPE:OC   UNIT   39   STATUS:OLD    
 FORMAT:FORMATTED              ACCESS:SEQUENTIAL          

 OPENING .\uzftest_single_line_options\UzfTest.fhd
 FILE TYPE:DATA   UNIT   37   STATUS:REPLACE
 FORMAT:FORMATTED              ACCESS:SEQUENTIAL          

 OPENING .\uzftest_single_line_options\UzfTest.fdn
 FILE TYPE:DATA   UNIT   38   STATUS:REPLACE
 FORMAT:FORMATTED              ACCESS:SEQUENTIAL          

 OPENING .\uzftest_single_line_options\UzfTest.pcg
 FILE TYPE:PCG   UNIT   18   STATUS:OLD    
 FORMAT:FORMATTED              ACCESS:SEQUENTIAL          

 OPENING .\uzftest_single_line_options\UzfTest.lpf
 FILE TYPE:LPF   UNIT   14   STATUS:OLD    
 FORMAT:FORMATTED              ACCESS:SEQUENTIAL          

 OPENING .\uzftest_single_line_options\UzfTest.chd
 FILE TYPE:CHD   UNIT   17   STATUS:OLD    
 FORMAT:FORMATTED              ACCESS:SEQUENTIAL          

 OPENING .\uzftest_single_line_options\UzfTest.sfr
 FILE TYPE:SFR   UNIT   29   STATUS:OLD    
 FORMAT:FORMATTED              ACCESS:SEQUENTIAL          

 OPENING .\uzftest_single_line_options\UzfTest.sfrg1
 FILE TYPE:DATA   UNIT ****   STATUS:REPLACE
 FORMAT:FORMATTED              ACCESS:SEQUENTIAL          

 OPENING .\uzftest_single_line_options\UzfTest.sfrg2
 FILE TYPE:DATA   UNIT ****   STATUS:REPLACE
 FORMAT:FORMATTED              ACCESS:SEQUENTIAL          

 OPENING .\uzftest_single_line_options\UzfTest.uzf
 FILE TYPE:UZF   UNIT   31   STATUS:OLD    
 FORMAT:FORMATTED              ACCESS:SEQUENTIAL          

 OPENING .\uzftest_single_line_options\UzfTest.gag
 FILE TYPE:GAGE   UNIT   40   STATUS:OLD    
 FORMAT:FORMATTED              ACCESS:SEQUENTIAL          

 BAS -- BASIC PACKAGE, VERSION 1.1.2, 9/15/2016 INPUT READ FROM UNIT   13
 
 MODFLOW was compiled using mixed precision
 Precision of REAL variables:           6
 Precision of DOUBLE PRECISION variables:          15

 DISCRETIZATION INPUT DATA READ FROM UNIT   12
 # Discretization File created on 1/23/2017 by ModelMuse version 3.8.1.25.
 # Upper left corner: (0, 0)
 # Lower left corner: (0, -2000)
 # Upper right corner: (2000, 0)
 # Lower right corner: (2000, -2000)
 # Grid angle (in degrees counterclockwise): 0
    2 LAYERS        20 ROWS        20 COLUMNS
    2 STRESS PERIOD(S) IN SIMULATION
 MODEL TIME UNIT IS SECONDS
 MODEL LENGTH UNIT IS METERS
  Confining bed flag for each layer:
   0   0

                     DELR =   100.000    

                     DELC =   100.000    

 TOP ELEVATION OF LAYER 1 =   0.00000    

   MODEL LAYER BOTTOM EL. =  -10.0000     FOR LAYER   1

   MODEL LAYER BOTTOM EL. =  -20.0000     FOR LAYER   2


 STRESS PERIOD     LENGTH       TIME STEPS     MULTIPLIER FOR DELT    SS FLAG
 ----------------------------------------------------------------------------
        1         1.000000          1                    1.000         SS
        2         2000.000         25                    1.300         TR

 COMBINED STEADY-STATE AND TRANSIENT SIMULATION



 
 # Basic Package file created on 1/23/2017 by ModelMuse version 3.8.1.25.        
 THE FREE FORMAT OPTION HAS BEEN SELECTED
 THE PRINTTIME OPTION HAS BEEN SELECTED
 CALCULATE FLOW BETWEEN ADJACENT CONSTANT-HEAD CELLS

           BOUNDARY ARRAY =              1 FOR LAYER   1

           BOUNDARY ARRAY =              1 FOR LAYER   2

 AQUIFER HEAD WILL BE SET TO -1.00000E+20 AT ALL NO-FLOW NODES (IBOUND=0).

             INITIAL HEAD =   0.00000     FOR LAYER   1

             INITIAL HEAD =   0.00000     FOR LAYER   2
 # Output Control file created on 1/23/2017 by ModelMuse version 3.8.1.25.

 OUTPUT CONTROL IS SPECIFIED ONLY AT TIME STEPS FOR WHICH OUTPUT IS DESIRED
 HEADS WILL BE SAVED WITH FORMAT: (10(1X1PE13.5))     
 SAVED HEADS WILL BE LABELED
 DRAWDOWN WILL BE SAVED WITH FORMAT: (10(1X1PE13.5))     
 SAVED DRAWDOWN WILL BE LABELED
 COMPACT CELL-BY-CELL BUDGET FILES WILL BE WRITTEN
 AUXILIARY DATA WILL BE SAVED IN CELL-BY-CELL BUDGET FILES
 HEAD PRINT FORMAT CODE IS   0    DRAWDOWN PRINT FORMAT CODE IS   0
 HEADS WILL BE SAVED ON UNIT   37    DRAWDOWNS WILL BE SAVED ON UNIT   38

 LPF -- LAYER-PROPERTY FLOW PACKAGE, VERSION 7, 5/2/2005
         INPUT READ FROM UNIT   14
 # LPF: Layer Property Flow package file created on 1/23/2017 by ModelMuse version 3.8.1.25.
 CELL-BY-CELL FLOWS WILL BE SAVED ON UNIT    9
 HEAD AT CELLS THAT CONVERT TO DRY= -2.00000E+20
 No named parameters

   LAYER FLAGS:
 LAYER       LAYTYP        LAYAVG         CHANI        LAYVKA        LAYWET
 ---------------------------------------------------------------------------
    1             1             0    -1.000E+00             0             0
    2             0             0    -1.000E+00             0             0

   INTERPRETATION OF LAYER FLAGS:
                        INTERBLOCK     HORIZONTAL    DATA IN
         LAYER TYPE   TRANSMISSIVITY   ANISOTROPY   ARRAY VKA   WETTABILITY
 LAYER      (LAYTYP)      (LAYAVG)       (CHANI)      (LAYVKA)      (LAYWET)
 ---------------------------------------------------------------------------
    1   CONVERTIBLE      HARMONIC      VARIABLE    VERTICAL K  NON-WETTABLE
    2      CONFINED      HARMONIC      VARIABLE    VERTICAL K  NON-WETTABLE

 WETTING CAPABILITY IS NOT ACTIVE IN ANY LAYER

    HYD. COND. ALONG ROWS =   100.000     FOR LAYER   1

   HORIZ. ANI. (COL./ROW) =   1.00000     FOR LAYER   1

      VERTICAL HYD. COND. =   10.0000     FOR LAYER   1

         SPECIFIC STORAGE =  1.000000E-05 FOR LAYER   1

           SPECIFIC YIELD =  0.200000     FOR LAYER   1

    HYD. COND. ALONG ROWS =   100.000     FOR LAYER   2

   HORIZ. ANI. (COL./ROW) =   1.00000     FOR LAYER   2

      VERTICAL HYD. COND. =   10.0000     FOR LAYER   2

         SPECIFIC STORAGE =  1.000000E-05 FOR LAYER   2

 CHD -- TIME-VARIANT SPECIFIED-HEAD OPTION, VERSION 7, 5/2/2005
 INPUT READ FROM UNIT   17
 # CHD: Time-Variant Specified-Head package file created on 1/23/2017 by ModelMuse version 3.8.1.25.
 No named parameters
 MAXIMUM OF      1 TIME-VARIANT SPECIFIED-HEAD CELLS AT ONE TIME
 AUXILIARY CHD VARIABLE: IFACE           


     0 TIME-VARIANT SPECIFIED-HEAD PARAMETERS

 SFR7 -- STREAMFLOW ROUTING PACKAGE, VERSION 1.0.5, 2012-04-05
         INPUT READ FROM UNIT  29
 # SFR: Stream-Flow Routing package file created on 1/23/2017 by ModelMuse version 3.8.1.25.
 No named parameters


 END PROCESSING SFR2 OPTIONS


 NUMBER OF STREAM REACHES IS   33

 NUMBER OF STREAM SEGMENTS IS    2

 NUMBER OF STREAM PARAMETERS IS    0

 NUMBER OF STREAM SEGMENTS DEFINED USING PARAMETERS IS              0

 MAXIMUM ERROR FOR STREAM LEAKAGE RATES IS  1.00E-04

 CONSTANT FOR MANNINGS EQUATION IS  1.0000E+00





 OPTION FOR UNSATURATED FLOW BENEATH STREAMBEDS IS ACTIVE 


 FLOW TO AND FROM GROUND WATER FOR EACH STREAM REACH WILL BE SAVED ON UNIT    9
 STREAM OUTPUT WILL BE WRITTEN TO FILE ON UNIT   11


   STREAM NETWORK DESCRIPTION: 

   LAYER    ROW    COL   SEGMENT   REACH     LENGTH
                          NUMBER   NUMBER    IN CELL        
   --------------------------------------------------
      1      2      2       1        1    4.4443E+01
      1      2      3       1        2    4.8339E+01
      1      3      3       1        3    9.3879E+01
      1      3      4       1        4    4.6759E+01
      1      4      4       1        5    9.5459E+01
      1      4      5       1        6    4.5178E+01
      1      5      5       1        7    9.7040E+01
      1      5      6       1        8    4.3598E+01
      1      6      6       1        9    9.8620E+01
      1      6      7       1       10    4.2018E+01
      1      7      7       1       11    1.0020E+02
      1      7      8       1       12    4.0438E+01
      1      8      8       1       13    1.0178E+02
      1      8      9       1       14    3.8858E+01
      1      9      9       1       15    1.0336E+02
      1      9     10       1       16    3.7277E+01
      1     10     10       1       17    2.1486E+01
      1     10     11       2        1    4.5648E+01
      1     11     11       2        2    9.4409E+01
      1     11     12       2        3    4.5450E+01
      1     12     12       2        4    9.7588E+01
      1     12     13       2        5    4.2271E+01
      1     13     13       2        6    1.0077E+02
      1     13     14       2        7    3.9092E+01
      1     14     14       2        8    1.0394E+02
      1     14     15       2        9    3.5914E+01
      1     15     15       2       10    1.0712E+02
      1     15     16       2       11    3.2735E+01
      1     16     16       2       12    1.1030E+02
      1     16     17       2       13    2.9557E+01
      1     17     17       2       14    1.1348E+02
      1     17     18       2       15    2.6378E+01
      1     18     18       2       16    6.7987E+01




 UZF1 -- UNSATURATED FLOW PACKAGE, VERSION 1.4, 02/06/2012
         INPUT READ FROM UNIT 31
 # UZF: Unsaturated-Zone Flow package file created on 1/23/2017 by ModelMuse version 3.8.1.25.
 No named parameters
 
 INITIAL WATER CONTENT (THTI) WILL BE 
READ FOR THE FIRST SS OR TR STRESS PERIOD
 
 
 SURFACE LEAKAGE WILL NOT BE SIMULATED 
 

 END PROCESSING UZF OPTIONS

  AREAL EXTENT OF UZ FLOW =              0
 OPTION 1 -- RECHARGE IN UZF TO TOP LAYER ONLY 



            ROUTING OVERLAND RUNOFF
 READING ON UNIT   31 WITH FORMAT: (FREE)              

          1     2     3     4     5     6     7     8     9    10    11    12    13    14    15    16    17    18    19    20
 ............................................................................................................................
   1      1     1     1     1     1     1     1     1     1     1     1     1     1     1     1     1     1     1     1     1
   2      1     1     1     1     1     1     1     1     1     1     1     1     1     1     1     1     1     1     1     1
   3      1     1     1     1     1     1     1     1     1     1     1     1     1     1     1     1     1     1     1     2
   4      1     1     1     1     1     1     1     1     1     1     1     1     1     1     1     1     1     1     2     2
   5      1     1     1     1     1     1     1     1     1     1     1     1     1     1     1     1     1     2     2     2
   6      1     1     1     1     1     1     1     1     1     1     1     1     1     1     1     1     2     2     2     2
   7      1     1     1     1     1     1     1     1     1     1     1     1     1     1     1     2     2     2     2     2
   8      1     1     1     1     1     1     1     1     1     1     1     1     1     1     2     2     2     2     2     2
   9      1     1     1     1     1     1     1     1     1     1     1     1     1     2     2     2     2     2     2     2
  10      1     1     1     1     1     1     1     1     1     1     2     1     2     2     2     2     2     2     2     2
  11      1     1     1     1     1     1     1     1     1     1     2     2     2     2     2     2     2     2     2     2
  12      1     1     1     1     1     1     1     1     1     2     2     2     2     2     2     2     2     2     2     2
  13      1     1     1     1     1     1     1     1     2     2     2     2     2     2     2     2     2     2     2     2
  14      1     1     1     1     1     1     1     2     2     2     2     2     2     2     2     2     2     2     2     2
  15      1     1     1     1     1     1     2     2     2     2     2     2     2     2     2     2     2     2     2     2
  16      1     1     1     1     1     2     2     2     2     2     2     2     2     2     2     2     2     2     2     2
  17      1     1     1     1     2     2     2     2     2     2     2     2     2     2     2     2     2     2     2     2
  18      1     1     1     2     2     2     2     2     2     2     2     2     2     2     2     2     2     2     2     2
  19      1     1     2     2     2     2     2     2     2     2     2     2     2     2     2     2     2     2     2     2
  20      1     2     2     2     2     2     2     2     2     2     2     2     2     2     2     2     2     2     2     2

     SATURATED VERTICAL K =   1.00000    

     BROOKS-COREY EPSILON =   3.50000    

  SATURATED WATER CONTENT =  0.300000    

    INITIAL WATER CONTENT =  0.300000    



   2 GAGING STATIONS WERE SPECIFIED.
     (Lakes are identified by a negative value of the Lake Number)
     RECORDS WILL BE WRITTEN TO SEPARATE OUTPUT FILES REPRESENTED BY FOLLOWING UNIT NUMBERS:

 Stream Gages:
  GAGE #   SEGMENT   REACH   UNIT   OUTTYPE
       1       1       1   20205       0
       2       2      16   20206       0





 PCG -- CONJUGATE-GRADIENT SOLUTION PACKAGE, VERSION 7, 5/2/2005
 # PCG: Preconditioned Conjugate Gradient package file created on 1/23/2017 by ModelMuse version 3.8.1.25.
 MAXIMUM OF     20 CALLS OF SOLUTION ROUTINE
 MAXIMUM OF     30 INTERNAL ITERATIONS PER CALL TO SOLUTION ROUTINE
 MATRIX PRECONDITIONING TYPE :    1



                                    SOLUTION BY THE CONJUGATE-GRADIENT METHOD
                                   -------------------------------------------
                    MAXIMUM NUMBER OF CALLS TO PCG ROUTINE =       20
                        MAXIMUM ITERATIONS PER CALL TO PCG =       30
                               MATRIX PRECONDITIONING TYPE =        1
        RELAXATION FACTOR (ONLY USED WITH PRECOND. TYPE 1) =    0.10000E+01
 PARAMETER OF POLYNOMIAL PRECOND. = 2 (2) OR IS CALCULATED :        1
                         HEAD CHANGE CRITERION FOR CLOSURE =    0.10000E-03
                     RESIDUAL CHANGE CRITERION FOR CLOSURE =    0.10000E-03
            PCG HEAD AND RESIDUAL CHANGE PRINTOUT INTERVAL =        1
     PRINTING FROM SOLVER IS LIMITED(1) OR SUPPRESSED (>1) =        0
                            STEADY-STATE DAMPING PARAMETER =    0.10000E+01
                               TRANSIENT DAMPING PARAMETER =    0.10000E+01
1
                            STRESS PERIOD NO.    1, LENGTH =   1.000000    
                            -----------------------------------------------

                              NUMBER OF TIME STEPS =     1

                               MULTIPLIER FOR DELT =     1.000

                            INITIAL TIME STEP SIZE =   1.000000    

 CHD NO.   LAYER   ROW   COL    START HEAD        END HEAD         IFACE           
 ----------------------------------------------------------------------------------
      1      1      1      1       3.000           3.000           0.000    


      1 TIME-VARIANT SPECIFIED-HEAD CELLS



 CLASSIFICATION & COUNT OF STREAM SEGMENTS BASED ON SOURCE OF INFLOW:

                HEADWATER     DIVERSION     RECEIVES TRIBUTARY FLOW
                ---------     ---------     -----------------------
                     1              0               1



                    INPUT DATA FOR EACH STREAM SEGMENT
 ---------------------------------------------------------------------------------------------

 SEGMENT    SEG.     INFLOW   OVERLAND   STREAM    STREAM   ICALC  OUTFLOW  DIVERSION PRIORITY
    NO.    LENGTH     RATE     RUNOFF      ET       PPT.    METH.  TO SEG.  FROM SEG.    NO.

      1  1.099E+03 1.000E+00 0.000E+00 0.000E+00 0.000E+00    0        2        0        0
      2  1.093E+03 0.000E+00 0.000E+00 0.000E+00 0.000E+00    0        0        0        0


         STREAMBED PROPERTIES AND STREAM DIMENSIONS

 SEGMENT     BED HYD. COND.      BED THICKNESS     ELEV.-TOP OF BED     WIDTH OF STREAM     DEPTH OF STREAM    STREAM ROUGHNESS    SAT. WATER CONT.    INT. WATER CONT.    BROOKS/COREY EPS.
    No.     UPPER     LOWER     UPPER     LOWER     UPPER     LOWER     UPPER     LOWER     UPPER     LOWER   CHANNEL      BANK     UPPER     LOWER     UPPER     LOWER     UPPER     LOWER

     1  1.000E-05 1.000E-05 1.000E+00 1.000E+00 2.000E+00 1.000E+00 1.000E+00 1.000E+00 1.000E+00 1.000E+00
     2  1.000E-05 1.000E-05 1.000E+00 1.000E+00 1.000E+00 0.000E+00 1.000E+00 1.000E+00 1.000E+00 1.000E+00




  AREAL INFILTRATION RATE =   0.00000    

                  ET RATE =   0.00000    

      ET EXTINCTION DEPTH =   1.00000    

 EXTINCTION WATER CONTENT =  0.200000    
 
 SOLVING FOR HEAD 


     3 CALLS TO PCG ROUTINE FOR TIME STEP     1 IN STRESS PERIOD    1
    29 TOTAL ITERATIONS

 MAXIMUM HEAD CHANGE FOR EACH ITERATION (1 INDICATES THE FIRST INNER ITERATION):

    HEAD CHANGE    HEAD CHANGE    HEAD CHANGE    HEAD CHANGE    HEAD CHANGE 
   LAYER,ROW,COL  LAYER,ROW,COL  LAYER,ROW,COL  LAYER,ROW,COL  LAYER,ROW,COL
 ---------------------------------------------------------------------------
  1   3.000      0 -0.1297E-04  0 -0.1008E-04  0 -0.9989E-05  0 -0.5107E-05
   (  1,  1, 18)  (  2,  1, 20)  (  2,  7,  7)  (  2, 13,  7)  (  2,  6, 12)
  0 -0.2619E-05  0 -0.1195E-05  0 -0.1293E-05  0 -0.9467E-06  0 -0.5464E-06
   (  1,  1, 20)  (  2,  4, 13)  (  2, 20,  3)  (  2,  1, 20)  (  2, 20, 11)
  0 -0.2437E-06  0 -0.1877E-06  0 -0.7180E-07  0  0.3601E-07  0 -0.4102E-07
   (  2, 20,  1)  (  2, 14,  5)  (  2, 20,  5)  (  2, 20,  1)  (  2,  1, 20)
  1 -0.1305E-04  0 -0.7950E-05  0 -0.2949E-05  0 -0.2485E-05  0 -0.1318E-05
   (  2,  9,  9)  (  2, 20,  6)  (  2, 11,  6)  (  2, 20,  1)  (  2,  3,  2)
  0 -0.8844E-06  0 -0.5972E-06  0 -0.3616E-06  0 -0.2280E-06  0 -0.1632E-06
   (  2, 20,  1)  (  2,  7,  1)  (  2,  1,  7)  (  2, 20,  1)  (  2,  1, 20)
  0 -0.4081E-07  0 -0.2310E-07  0 -0.2306E-07  1  0.9440E-08
   (  1, 20,  7)  (  2, 20,  6)  (  2, 20,  1)  (  2, 20,  1)

 MAXIMUM RESIDUAL FOR EACH ITERATION (1 INDICATES THE FIRST INNER ITERATION):

    RESIDUAL       RESIDUAL       RESIDUAL       RESIDUAL       RESIDUAL    
   LAYER,ROW,COL  LAYER,ROW,COL  LAYER,ROW,COL  LAYER,ROW,COL  LAYER,ROW,COL
 ---------------------------------------------------------------------------
  1 -0.1790E-01  0 -0.1716E-01  0 -0.1442E-01  0 -0.1107E-01  0 -0.9025E-02
   (  2,  1,  1)  (  2,  1,  1)  (  2,  1,  1)  (  2,  1,  1)  (  2,  1,  1)
  0 -0.6625E-02  0 -0.5360E-02  0 -0.3804E-02  0 -0.2741E-02  0 -0.1388E-02
   (  2,  1,  1)  (  2,  1,  1)  (  2,  1,  1)  (  2,  1,  1)  (  2,  1,  1)
  0  0.8461E-03  0 -0.4731E-03  0  0.2687E-03  0  0.1454E-03  0  0.6992E-04
   (  2,  2,  1)  (  1,  2,  2)  (  2,  2,  1)  (  2,  2,  1)  (  2,  2,  1)
  1  0.3647E-02  0  0.5198E-02  0  0.5270E-02  0  0.4493E-02  0  0.3311E-02
   (  2,  2,  2)  (  2,  2,  2)  (  2,  2,  2)  (  2,  2,  2)  (  2,  2,  1)
  0  0.2145E-02  0  0.1243E-02  0 -0.7184E-03  0  0.4386E-03  0  0.3148E-03
   (  2,  1,  2)  (  2,  2,  1)  (  1,  2,  2)  (  2,  2,  1)  (  2,  2,  1)
  0  0.2087E-03  0  0.1219E-03  0  0.4319E-04  1  0.3503E-04
   (  2,  2,  1)  (  2,  2,  1)  (  2,  2,  1)  (  2,  2,  1)



 OUTPUT CONTROL FOR STRESS PERIOD    1   TIME STEP    1
 Drawdown Reference will be reset at the end of this time step
    SAVE HEAD FOR ALL LAYERS
    SAVE DRAWDOWN FOR ALL LAYERS
    SAVE BUDGET
    PRINT BUDGET
 UBDSV2 SAVING "   CONSTANT HEAD" ON UNIT   9 AT TIME STEP     1, STRESS PERIOD   1
 UBDSV1 SAVING "FLOW RIGHT FACE " ON UNIT   9 AT TIME STEP     1, STRESS PERIOD   1
 UBDSV1 SAVING "FLOW FRONT FACE " ON UNIT   9 AT TIME STEP     1, STRESS PERIOD   1
 UBDSV1 SAVING "FLOW LOWER FACE " ON UNIT   9 AT TIME STEP     1, STRESS PERIOD   1
 UBDSV4 SAVING "  STREAM LEAKAGE" ON UNIT   9 AT TIME STEP     1, STRESS PERIOD   1



 STREAM LISTING     PERIOD      1   STEP        1

 LAYER ROW COL. STREAM  RCH.   FLOW INTO    STREAM     FLOW OUT OF   OVRLND.    DIRECT     STREAM      STREAM      STREAM     STREAM  STREAMBED   FLOW TO   CHNG. UNSAT. 
                SEG.NO.  NO.   STRM. RCH.    LOSS       STRM. RCH.   RUNOFF     PRECIP       ET         HEAD        DEPTH      WIDTH  CONDCTNC.   WAT. TAB.

   1    2    2     1     1    1.0000E+00 -8.9848E-06   1.0000E+00  0.000E+00  0.000E+00  0.000E+00  2.97978E+00  1.000E+00  1.000E+00  4.444E-04  0.000E+00  0.000E+00
   1    2    3     1     2    1.0000E+00 -3.0181E-05   1.0000E+00  0.000E+00  0.000E+00  0.000E+00  2.93755E+00  1.000E+00  1.000E+00  4.834E-04  0.000E+00  0.000E+00
   1    3    3     1     3    1.0000E+00 -1.1937E-04   1.0002E+00  0.000E+00  0.000E+00  0.000E+00  2.87283E+00  1.000E+00  1.000E+00  9.388E-04  0.000E+00  0.000E+00
   1    3    4     1     4    1.0002E+00 -8.9380E-05   1.0002E+00  0.000E+00  0.000E+00  0.000E+00  2.80883E+00  1.000E+00  1.000E+00  4.676E-04  0.000E+00  0.000E+00
   1    4    4     1     5    1.0002E+00 -2.4425E-04   1.0005E+00  0.000E+00  0.000E+00  0.000E+00  2.74411E+00  1.000E+00  1.000E+00  9.546E-04  0.000E+00  0.000E+00
   1    4    5     1     6    1.0005E+00 -1.4451E-04   1.0006E+00  0.000E+00  0.000E+00  0.000E+00  2.68011E+00  1.000E+00  1.000E+00  4.518E-04  0.000E+00  0.000E+00
   1    5    5     1     7    1.0006E+00 -3.7320E-04   1.0010E+00  0.000E+00  0.000E+00  0.000E+00  2.61540E+00  1.000E+00  1.000E+00  9.704E-04  0.000E+00  0.000E+00
   1    5    6     1     8    1.0010E+00 -1.9558E-04   1.0012E+00  0.000E+00  0.000E+00  0.000E+00  2.55140E+00  1.000E+00  1.000E+00  4.360E-04  0.000E+00  0.000E+00
   1    6    6     1     9    1.0012E+00 -5.0622E-04   1.0017E+00  0.000E+00  0.000E+00  0.000E+00  2.48668E+00  1.000E+00  1.000E+00  9.862E-04  0.000E+00  0.000E+00
   1    6    7     1    10    1.0017E+00 -2.4257E-04   1.0020E+00  0.000E+00  0.000E+00  0.000E+00  2.42268E+00  1.000E+00  1.000E+00  4.202E-04  0.000E+00  0.000E+00
   1    7    7     1    11    1.0020E+00 -6.4331E-04   1.0026E+00  0.000E+00  0.000E+00  0.000E+00  2.35796E+00  1.000E+00  1.000E+00  1.002E-03  0.000E+00  0.000E+00
   1    7    8     1    12    1.0026E+00 -2.8550E-04   1.0029E+00  0.000E+00  0.000E+00  0.000E+00  2.29396E+00  1.000E+00  1.000E+00  4.044E-04  0.000E+00  0.000E+00
   1    8    8     1    13    1.0029E+00 -7.8446E-04   1.0037E+00  0.000E+00  0.000E+00  0.000E+00  2.22924E+00  1.000E+00  1.000E+00  1.018E-03  0.000E+00  0.000E+00
   1    8    9     1    14    1.0037E+00 -3.2436E-04   1.0040E+00  0.000E+00  0.000E+00  0.000E+00  2.16524E+00  1.000E+00  1.000E+00  3.886E-04  0.000E+00  0.000E+00
   1    9    9     1    15    1.0040E+00 -9.2969E-04   1.0049E+00  0.000E+00  0.000E+00  0.000E+00  2.10052E+00  1.000E+00  1.000E+00  1.034E-03  0.000E+00  0.000E+00
   1    9   10     1    16    1.0049E+00 -3.5915E-04   1.0053E+00  0.000E+00  0.000E+00  0.000E+00  2.03652E+00  1.000E+00  1.000E+00  3.728E-04  0.000E+00  0.000E+00
   1   10   10     1    17    1.0053E+00 -2.1276E-04   1.0055E+00  0.000E+00  0.000E+00  0.000E+00  2.00978E+00  1.000E+00  1.000E+00  2.149E-04  0.000E+00  0.000E+00
   1   10   11     2     1    1.0055E+00 -4.6601E-04   1.0060E+00  0.000E+00  0.000E+00  0.000E+00  1.97911E+00  1.000E+00  1.000E+00  4.565E-04  0.000E+00  0.000E+00
   1   11   11     2     2    1.0060E+00 -1.0243E-03   1.0070E+00  0.000E+00  0.000E+00  0.000E+00  1.91502E+00  1.000E+00  1.000E+00  9.441E-04  0.000E+00  0.000E+00
   1   11   12     2     3    1.0070E+00 -5.2220E-04   1.0075E+00  0.000E+00  0.000E+00  0.000E+00  1.85102E+00  1.000E+00  1.000E+00  4.545E-04  0.000E+00  0.000E+00
   1   12   12     2     4    1.0075E+00 -1.1851E-03   1.0087E+00  0.000E+00  0.000E+00  0.000E+00  1.78557E+00  1.000E+00  1.000E+00  9.759E-04  0.000E+00  0.000E+00
   1   12   13     2     5    1.0087E+00 -5.4040E-04   1.0092E+00  0.000E+00  0.000E+00  0.000E+00  1.72157E+00  1.000E+00  1.000E+00  4.227E-04  0.000E+00  0.000E+00
   1   13   13     2     6    1.0092E+00 -1.3542E-03   1.0106E+00  0.000E+00  0.000E+00  0.000E+00  1.65611E+00  1.000E+00  1.000E+00  1.008E-03  0.000E+00  0.000E+00
   1   13   14     2     7    1.0106E+00 -5.5037E-04   1.0111E+00  0.000E+00  0.000E+00  0.000E+00  1.59211E+00  1.000E+00  1.000E+00  3.909E-04  0.000E+00  0.000E+00
   1   14   14     2     8    1.0111E+00 -1.5314E-03   1.0127E+00  0.000E+00  0.000E+00  0.000E+00  1.52666E+00  1.000E+00  1.000E+00  1.039E-03  0.000E+00  0.000E+00
   1   14   15     2     9    1.0127E+00 -5.5211E-04   1.0132E+00  0.000E+00  0.000E+00  0.000E+00  1.46266E+00  1.000E+00  1.000E+00  3.591E-04  0.000E+00  0.000E+00
   1   15   15     2    10    1.0132E+00 -1.7169E-03   1.0149E+00  0.000E+00  0.000E+00  0.000E+00  1.39720E+00  1.000E+00  1.000E+00  1.071E-03  0.000E+00  0.000E+00
   1   15   16     2    11    1.0149E+00 -5.4562E-04   1.0155E+00  0.000E+00  0.000E+00  0.000E+00  1.33320E+00  1.000E+00  1.000E+00  3.274E-04  0.000E+00  0.000E+00
   1   16   16     2    12    1.0155E+00 -1.9107E-03   1.0174E+00  0.000E+00  0.000E+00  0.000E+00  1.26775E+00  1.000E+00  1.000E+00  1.103E-03  0.000E+00  0.000E+00
   1   16   17     2    13    1.0174E+00 -5.3090E-04   1.0179E+00  0.000E+00  0.000E+00  0.000E+00  1.20375E+00  1.000E+00  1.000E+00  2.956E-04  0.000E+00  0.000E+00
   1   17   17     2    14    1.0179E+00 -2.1127E-03   1.0200E+00  0.000E+00  0.000E+00  0.000E+00  1.13829E+00  1.000E+00  1.000E+00  1.135E-03  0.000E+00  0.000E+00
   1   17   18     2    15    1.0200E+00 -5.0796E-04   1.0205E+00  0.000E+00  0.000E+00  0.000E+00  1.07429E+00  1.000E+00  1.000E+00  2.638E-04  0.000E+00  0.000E+00
   1   18   18     2    16    1.0205E+00 -1.3386E-03   1.0219E+00  0.000E+00  0.000E+00  0.000E+00  1.03111E+00  1.000E+00  1.000E+00  6.799E-04  0.000E+00  0.000E+00



 UBDSV3 SAVING "           GW ET" ON UNIT   9 AT TIME STEP     1, STRESS PERIOD   1
 UBDSV3 SAVING "    UZF RECHARGE" ON UNIT   9 AT TIME STEP     1, STRESS PERIOD   1
 UBDSV3 SAVING " SURFACE LEAKAGE" ON UNIT   9 AT TIME STEP     1, STRESS PERIOD   1
 UBDSV3 SAVING "       HORT+DUNN" ON UNIT   9 AT TIME STEP     1, STRESS PERIOD   1
 UBDSV3 SAVING "  STORAGE CHANGE" ON UNIT   9 AT TIME STEP     1, STRESS PERIOD   1


UNSATURATED ZONE PACKAGE VOLUMETRIC BUDGET FOR  TIME STEP     1 STRESS PERIOD    1
  ------------------------------------------------------------------------------



     CUMULATIVE VOLUMES      L**3       RATES FOR THIS TIME STEP      L**3/T
     ------------------                 ------------------------

           IN:                                      IN:
           ---                                      ---
        INFILTRATION =       0.0000E+00          INFILTRATION =       0.0000E+00

          OUT:                                     OUT:
          ----                                     ----
              UZF ET =       0.0000E+00                UZF ET =       0.0000E+00
        UZF RECHARGE =       0.0000E+00          UZF RECHARGE =       0.0000E+00

            IN - OUT =       0.0000E+00              IN - OUT =       0.0000E+00

          STORAGE:                                 STORAGE:
          --------                                 --------
      STORAGE CHANGE =       0.0000E+00        STORAGE CHANGE =       0.0000E+00

 PERCENT DISCREPANCY IS DIFFERENCE BETWEEN IN-OUT MINUS CHANGE IN STORAGE
 DIVIDED BY THE AVERAGE OF IN AND OUT TIMES 100

 PERCENT DISCREPANCY =           0.00     PERCENT DISCREPANCY =           0.00







 HEAD WILL BE SAVED ON UNIT   37 AT END OF TIME STEP    1, STRESS PERIOD    1

 DRAWDOWN WILL BE SAVED ON UNIT   38 AT END OF TIME STEP    1, STRESS PERIOD    1
1
  VOLUMETRIC BUDGET FOR ENTIRE MODEL AT END OF TIME STEP    1, STRESS PERIOD   1
  ------------------------------------------------------------------------------

     CUMULATIVE VOLUMES      L**3       RATES FOR THIS TIME STEP      L**3/T
     ------------------                 ------------------------

           IN:                                      IN:
           ---                                      ---
             STORAGE =           0.0000               STORAGE =           0.0000
       CONSTANT HEAD =       2.1875E-02         CONSTANT HEAD =       2.1875E-02
      STREAM LEAKAGE =           0.0000        STREAM LEAKAGE =           0.0000
        UZF RECHARGE =           0.0000          UZF RECHARGE =           0.0000
               GW ET =           0.0000                 GW ET =           0.0000
     SURFACE LEAKAGE =           0.0000       SURFACE LEAKAGE =           0.0000

            TOTAL IN =       2.1875E-02              TOTAL IN =       2.1875E-02

          OUT:                                     OUT:
          ----                                     ----
             STORAGE =           0.0000               STORAGE =           0.0000
       CONSTANT HEAD =           0.0000         CONSTANT HEAD =           0.0000
      STREAM LEAKAGE =       2.1883E-02        STREAM LEAKAGE =       2.1883E-02
        UZF RECHARGE =           0.0000          UZF RECHARGE =           0.0000
               GW ET =           0.0000                 GW ET =           0.0000
     SURFACE LEAKAGE =           0.0000       SURFACE LEAKAGE =           0.0000

           TOTAL OUT =       2.1883E-02             TOTAL OUT =       2.1883E-02

            IN - OUT =      -7.9889E-06              IN - OUT =      -7.9889E-06

 PERCENT DISCREPANCY =          -0.04     PERCENT DISCREPANCY =          -0.04



 Drawdown Reference has been reset to the end of this time step



         TIME SUMMARY AT END OF TIME STEP    1 IN STRESS PERIOD    1
                    SECONDS     MINUTES      HOURS       DAYS        YEARS
                    -----------------------------------------------------------
   TIME STEP LENGTH  1.0000     1.66667E-02 2.77778E-04 1.15741E-05 3.16881E-08
 STRESS PERIOD TIME  1.0000     1.66667E-02 2.77778E-04 1.15741E-05 3.16881E-08
         TOTAL TIME  1.0000     1.66667E-02 2.77778E-04 1.15741E-05 3.16881E-08
1
1
                            STRESS PERIOD NO.    2, LENGTH =   2000.000    
                            -----------------------------------------------

                              NUMBER OF TIME STEPS =    25

                               MULTIPLIER FOR DELT =     1.300

                            INITIAL TIME STEP SIZE =  0.8514980    

 REUSING NON-PARAMETER SPECIFIED-HEAD DATA FROM LAST STRESS PERIOD


      1 TIME-VARIANT SPECIFIED-HEAD CELLS



 CLASSIFICATION & COUNT OF STREAM SEGMENTS BASED ON SOURCE OF INFLOW:

                HEADWATER     DIVERSION     RECEIVES TRIBUTARY FLOW
                ---------     ---------     -----------------------
                     1              0               1



                    INPUT DATA FOR EACH STREAM SEGMENT
 ---------------------------------------------------------------------------------------------

 SEGMENT    SEG.     INFLOW   OVERLAND   STREAM    STREAM   ICALC  OUTFLOW  DIVERSION PRIORITY
    NO.    LENGTH     RATE     RUNOFF      ET       PPT.    METH.  TO SEG.  FROM SEG.    NO.

      1  1.099E+03 1.000E+00 0.000E+00 0.000E+00 0.000E+00    0        2        0        0
      2  1.093E+03 0.000E+00 0.000E+00 0.000E+00 0.000E+00    0        0        0        0


         STREAMBED PROPERTIES AND STREAM DIMENSIONS

 SEGMENT     BED HYD. COND.      BED THICKNESS     ELEV.-TOP OF BED     WIDTH OF STREAM     DEPTH OF STREAM    STREAM ROUGHNESS
    No.     UPPER     LOWER     UPPER     LOWER     UPPER     LOWER     UPPER     LOWER     UPPER     LOWER   CHANNEL      BANK

     1  1.000E-05 1.000E-05 1.000E+00 1.000E+00 2.000E+00 1.000E+00 1.000E+00 1.000E+00 1.000E+00 1.000E+00
     2  1.000E-05 1.000E-05 1.000E+00 1.000E+00 1.000E+00 0.000E+00 1.000E+00 1.000E+00 1.000E+00 1.000E+00




  AREAL INFILTRATION RATE =   0.00000    

                  ET RATE =   0.00000    

      ET EXTINCTION DEPTH =   1.00000    

 EXTINCTION WATER CONTENT =  0.200000    
 
 SOLVING FOR HEAD 


     1 CALLS TO PCG ROUTINE FOR TIME STEP     1 IN STRESS PERIOD    2
     1 TOTAL ITERATIONS

 MAXIMUM HEAD CHANGE FOR EACH ITERATION (1 INDICATES THE FIRST INNER ITERATION):

    HEAD CHANGE    HEAD CHANGE    HEAD CHANGE    HEAD CHANGE    HEAD CHANGE 
   LAYER,ROW,COL  LAYER,ROW,COL  LAYER,ROW,COL  LAYER,ROW,COL  LAYER,ROW,COL
 ---------------------------------------------------------------------------
  1  0.3704E-08
   (  2, 16,  4)

 MAXIMUM RESIDUAL FOR EACH ITERATION (1 INDICATES THE FIRST INNER ITERATION):

    RESIDUAL       RESIDUAL       RESIDUAL       RESIDUAL       RESIDUAL    
   LAYER,ROW,COL  LAYER,ROW,COL  LAYER,ROW,COL  LAYER,ROW,COL  LAYER,ROW,COL
 ---------------------------------------------------------------------------
  1  0.2688E-04
   (  2,  2,  1)



 OUTPUT CONTROL FOR STRESS PERIOD    2   TIME STEP    1
    SAVE HEAD FOR ALL LAYERS
    SAVE DRAWDOWN FOR ALL LAYERS
    SAVE BUDGET
    PRINT BUDGET
 UBDSV1 SAVING "         STORAGE" ON UNIT   9 AT TIME STEP     1, STRESS PERIOD   2
 UBDSV2 SAVING "   CONSTANT HEAD" ON UNIT   9 AT TIME STEP     1, STRESS PERIOD   2
 UBDSV1 SAVING "FLOW RIGHT FACE " ON UNIT   9 AT TIME STEP     1, STRESS PERIOD   2
 UBDSV1 SAVING "FLOW FRONT FACE " ON UNIT   9 AT TIME STEP     1, STRESS PERIOD   2
 UBDSV1 SAVING "FLOW LOWER FACE " ON UNIT   9 AT TIME STEP     1, STRESS PERIOD   2
 UBDSV4 SAVING "  STREAM LEAKAGE" ON UNIT   9 AT TIME STEP     1, STRESS PERIOD   2



 STREAM LISTING     PERIOD      2   STEP        1

 LAYER ROW COL. STREAM  RCH.   FLOW INTO    STREAM     FLOW OUT OF   OVRLND.    DIRECT     STREAM      STREAM      STREAM     STREAM  STREAMBED   FLOW TO   CHNG. UNSAT. 
                SEG.NO.  NO.   STRM. RCH.    LOSS       STRM. RCH.   RUNOFF     PRECIP       ET         HEAD        DEPTH      WIDTH  CONDCTNC.   WAT. TAB.

   1    2    2     1     1    1.0000E+00 -8.9848E-06   1.0000E+00  0.000E+00  0.000E+00  0.000E+00  2.97978E+00  1.000E+00  1.000E+00  4.444E-04  0.000E+00  0.000E+00
   1    2    3     1     2    1.0000E+00 -3.0181E-05   1.0000E+00  0.000E+00  0.000E+00  0.000E+00  2.93755E+00  1.000E+00  1.000E+00  4.834E-04  0.000E+00  0.000E+00
   1    3    3     1     3    1.0000E+00 -1.1937E-04   1.0002E+00  0.000E+00  0.000E+00  0.000E+00  2.87283E+00  1.000E+00  1.000E+00  9.388E-04  0.000E+00  0.000E+00
   1    3    4     1     4    1.0002E+00 -8.9380E-05   1.0002E+00  0.000E+00  0.000E+00  0.000E+00  2.80883E+00  1.000E+00  1.000E+00  4.676E-04  0.000E+00  0.000E+00
   1    4    4     1     5    1.0002E+00 -2.4425E-04   1.0005E+00  0.000E+00  0.000E+00  0.000E+00  2.74411E+00  1.000E+00  1.000E+00  9.546E-04  0.000E+00  0.000E+00
   1    4    5     1     6    1.0005E+00 -1.4451E-04   1.0006E+00  0.000E+00  0.000E+00  0.000E+00  2.68011E+00  1.000E+00  1.000E+00  4.518E-04  0.000E+00  0.000E+00
   1    5    5     1     7    1.0006E+00 -3.7320E-04   1.0010E+00  0.000E+00  0.000E+00  0.000E+00  2.61540E+00  1.000E+00  1.000E+00  9.704E-04  0.000E+00  0.000E+00
   1    5    6     1     8    1.0010E+00 -1.9558E-04   1.0012E+00  0.000E+00  0.000E+00  0.000E+00  2.55140E+00  1.000E+00  1.000E+00  4.360E-04  0.000E+00  0.000E+00
   1    6    6     1     9    1.0012E+00 -5.0622E-04   1.0017E+00  0.000E+00  0.000E+00  0.000E+00  2.48668E+00  1.000E+00  1.000E+00  9.862E-04  0.000E+00  0.000E+00
   1    6    7     1    10    1.0017E+00 -2.4257E-04   1.0020E+00  0.000E+00  0.000E+00  0.000E+00  2.42268E+00  1.000E+00  1.000E+00  4.202E-04  0.000E+00  0.000E+00
   1    7    7     1    11    1.0020E+00 -6.4331E-04   1.0026E+00  0.000E+00  0.000E+00  0.000E+00  2.35796E+00  1.000E+00  1.000E+00  1.002E-03  0.000E+00  0.000E+00
   1    7    8     1    12    1.0026E+00 -2.8550E-04   1.0029E+00  0.000E+00  0.000E+00  0.000E+00  2.29396E+00  1.000E+00  1.000E+00  4.044E-04  0.000E+00  0.000E+00
   1    8    8     1    13    1.0029E+00 -7.8446E-04   1.0037E+00  0.000E+00  0.000E+00  0.000E+00  2.22924E+00  1.000E+00  1.000E+00  1.018E-03  0.000E+00  0.000E+00
   1    8    9     1    14    1.0037E+00 -3.2436E-04   1.0040E+00  0.000E+00  0.000E+00  0.000E+00  2.16524E+00  1.000E+00  1.000E+00  3.886E-04  0.000E+00  0.000E+00
   1    9    9     1    15    1.0040E+00 -9.2969E-04   1.0049E+00  0.000E+00  0.000E+00  0.000E+00  2.10052E+00  1.000E+00  1.000E+00  1.034E-03  0.000E+00  0.000E+00
   1    9   10     1    16    1.0049E+00 -3.5915E-04   1.0053E+00  0.000E+00  0.000E+00  0.000E+00  2.03652E+00  1.000E+00  1.000E+00  3.728E-04  0.000E+00  0.000E+00
   1   10   10     1    17    1.0053E+00 -2.1276E-04   1.0055E+00  0.000E+00  0.000E+00  0.000E+00  2.00978E+00  1.000E+00  1.000E+00  2.149E-04  0.000E+00  0.000E+00
   1   10   11     2     1    1.0055E+00 -4.6601E-04   1.0060E+00  0.000E+00  0.000E+00  0.000E+00  1.97911E+00  1.000E+00  1.000E+00  4.565E-04  0.000E+00  0.000E+00
   1   11   11     2     2    1.0060E+00 -1.0243E-03   1.0070E+00  0.000E+00  0.000E+00  0.000E+00  1.91502E+00  1.000E+00  1.000E+00  9.441E-04  0.000E+00  0.000E+00
   1   11   12     2     3    1.0070E+00 -5.2220E-04   1.0075E+00  0.000E+00  0.000E+00  0.000E+00  1.85102E+00  1.000E+00  1.000E+00  4.545E-04  0.000E+00  0.000E+00
   1   12   12     2     4    1.0075E+00 -1.1851E-03   1.0087E+00  0.000E+00  0.000E+00  0.000E+00  1.78557E+00  1.000E+00  1.000E+00  9.759E-04  0.000E+00  0.000E+00
   1   12   13     2     5    1.0087E+00 -5.4040E-04   1.0092E+00  0.000E+00  0.000E+00  0.000E+00  1.72157E+00  1.000E+00  1.000E+00  4.227E-04  0.000E+00  0.000E+00
   1   13   13     2     6    1.0092E+00 -1.3542E-03   1.0106E+00  0.000E+00  0.000E+00  0.000E+00  1.65611E+00  1.000E+00  1.000E+00  1.008E-03  0.000E+00  0.000E+00
   1   13   14     2     7    1.0106E+00 -5.5037E-04   1.0111E+00  0.000E+00  0.000E+00  0.000E+00  1.59211E+00  1.000E+00  1.000E+00  3.909E-04  0.000E+00  0.000E+00
   1   14   14     2     8    1.0111E+00 -1.5314E-03   1.0127E+00  0.000E+00  0.000E+00  0.000E+00  1.52666E+00  1.000E+00  1.000E+00  1.039E-03  0.000E+00  0.000E+00
   1   14   15     2     9    1.0127E+00 -5.5211E-04   1.0132E+00  0.000E+00  0.000E+00  0.000E+00  1.46266E+00  1.000E+00  1.000E+00  3.591E-04  0.000E+00  0.000E+00
   1   15   15     2    10    1.0132E+00 -1.7169E-03   1.0149E+00  0.000E+00  0.000E+00  0.000E+00  1.39720E+00  1.000E+00  1.000E+00  1.071E-03  0.000E+00  0.000E+00
   1   15   16     2    11    1.0149E+00 -5.4562E-04   1.0155E+00  0.000E+00  0.000E+00  0.000E+00  1.33320E+00  1.000E+00  1.000E+00  3.274E-04  0.000E+00  0.000E+00
   1   16   16     2    12    1.0155E+00 -1.9107E-03   1.0174E+00  0.000E+00  0.000E+00  0.000E+00  1.26775E+00  1.000E+00  1.000E+00  1.103E-03  0.000E+00  0.000E+00
   1   16   17     2    13    1.0174E+00 -5.3090E-04   1.0179E+00  0.000E+00  0.000E+00  0.000E+00  1.20375E+00  1.000E+00  1.000E+00  2.956E-04  0.000E+00  0.000E+00
   1   17   17     2    14    1.0179E+00 -2.1127E-03   1.0200E+00  0.000E+00  0.000E+00  0.000E+00  1.13829E+00  1.000E+00  1.000E+00  1.135E-03  0.000E+00  0.000E+00
   1   17   18     2    15    1.0200E+00 -5.0796E-04   1.0205E+00  0.000E+00  0.000E+00  0.000E+00  1.07429E+00  1.000E+00  1.000E+00  2.638E-04  0.000E+00  0.000E+00
   1   18   18     2    16    1.0205E+00 -1.3386E-03   1.0219E+00  0.000E+00  0.000E+00  0.000E+00  1.03111E+00  1.000E+00  1.000E+00  6.799E-04  0.000E+00  0.000E+00



 UBDSV3 SAVING "           GW ET" ON UNIT   9 AT TIME STEP     1, STRESS PERIOD   2
 UBDSV3 SAVING "    UZF RECHARGE" ON UNIT   9 AT TIME STEP     1, STRESS PERIOD   2
 UBDSV3 SAVING " SURFACE LEAKAGE" ON UNIT   9 AT TIME STEP     1, STRESS PERIOD   2
 UBDSV3 SAVING "       HORT+DUNN" ON UNIT   9 AT TIME STEP     1, STRESS PERIOD   2
 UBDSV3 SAVING "  STORAGE CHANGE" ON UNIT   9 AT TIME STEP     1, STRESS PERIOD   2


UNSATURATED ZONE PACKAGE VOLUMETRIC BUDGET FOR  TIME STEP     1 STRESS PERIOD    2
  ------------------------------------------------------------------------------



     CUMULATIVE VOLUMES      L**3       RATES FOR THIS TIME STEP      L**3/T
     ------------------                 ------------------------

           IN:                                      IN:
           ---                                      ---
        INFILTRATION =       0.0000E+00          INFILTRATION =       0.0000E+00

          OUT:                                     OUT:
          ----                                     ----
              UZF ET =       0.0000E+00                UZF ET =       0.0000E+00
        UZF RECHARGE =       0.0000E+00          UZF RECHARGE =       0.0000E+00

            IN - OUT =       0.0000E+00              IN - OUT =       0.0000E+00

          STORAGE:                                 STORAGE:
          --------                                 --------
      STORAGE CHANGE =       0.0000E+00        STORAGE CHANGE =       0.0000E+00

 PERCENT DISCREPANCY IS DIFFERENCE BETWEEN IN-OUT MINUS CHANGE IN STORAGE
 DIVIDED BY THE AVERAGE OF IN AND OUT TIMES 100

 PERCENT DISCREPANCY =           0.00     PERCENT DISCREPANCY =           0.00







 HEAD WILL BE SAVED ON UNIT   37 AT END OF TIME STEP    1, STRESS PERIOD    2

 DRAWDOWN WILL BE SAVED ON UNIT   38 AT END OF TIME STEP    1, STRESS PERIOD    2
1
  VOLUMETRIC BUDGET FOR ENTIRE MODEL AT END OF TIME STEP    1, STRESS PERIOD   2
  ------------------------------------------------------------------------------

     CUMULATIVE VOLUMES      L**3       RATES FOR THIS TIME STEP      L**3/T
     ------------------                 ------------------------

           IN:                                      IN:
           ---                                      ---
             STORAGE =       2.0301E-07               STORAGE =       2.3842E-07
       CONSTANT HEAD =       4.0502E-02         CONSTANT HEAD =       2.1875E-02
      STREAM LEAKAGE =           0.0000        STREAM LEAKAGE =           0.0000
        UZF RECHARGE =           0.0000          UZF RECHARGE =           0.0000
               GW ET =           0.0000                 GW ET =           0.0000
     SURFACE LEAKAGE =           0.0000       SURFACE LEAKAGE =           0.0000

            TOTAL IN =       4.0502E-02              TOTAL IN =       2.1876E-02

          OUT:                                     OUT:
          ----                                     ----
             STORAGE =       4.0603E-07               STORAGE =       4.7684E-07
       CONSTANT HEAD =           0.0000         CONSTANT HEAD =           0.0000
      STREAM LEAKAGE =       4.0516E-02        STREAM LEAKAGE =       2.1883E-02
        UZF RECHARGE =           0.0000          UZF RECHARGE =           0.0000
               GW ET =           0.0000                 GW ET =           0.0000
     SURFACE LEAKAGE =           0.0000       SURFACE LEAKAGE =           0.0000

           TOTAL OUT =       4.0517E-02             TOTAL OUT =       2.1883E-02

            IN - OUT =      -1.4696E-05              IN - OUT =      -7.8771E-06

 PERCENT DISCREPANCY =          -0.04     PERCENT DISCREPANCY =          -0.04






         TIME SUMMARY AT END OF TIME STEP    1 IN STRESS PERIOD    2
                    SECONDS     MINUTES      HOURS       DAYS        YEARS
                    -----------------------------------------------------------
   TIME STEP LENGTH 0.85150     1.41916E-02 2.36527E-04 9.85530E-06 2.69823E-08
 STRESS PERIOD TIME 0.85150     1.41916E-02 2.36527E-04 9.85530E-06 2.69823E-08
         TOTAL TIME  1.8515     3.08583E-02 5.14305E-04 2.14294E-05 5.86704E-08
1
 
 SOLVING FOR HEAD 
     1 CALLS TO PCG ROUTINE FOR TIME STEP     2 IN STRESS PERIOD    2
     1 TOTAL ITERATIONS

 MAXIMUM HEAD CHANGE FOR EACH ITERATION (1 INDICATES THE FIRST INNER ITERATION):

    HEAD CHANGE    HEAD CHANGE    HEAD CHANGE    HEAD CHANGE    HEAD CHANGE 
   LAYER,ROW,COL  LAYER,ROW,COL  LAYER,ROW,COL  LAYER,ROW,COL  LAYER,ROW,COL
 ---------------------------------------------------------------------------
  1 -0.2748E-08
   (  2, 16, 13)

 MAXIMUM RESIDUAL FOR EACH ITERATION (1 INDICATES THE FIRST INNER ITERATION):

    RESIDUAL       RESIDUAL       RESIDUAL       RESIDUAL       RESIDUAL    
   LAYER,ROW,COL  LAYER,ROW,COL  LAYER,ROW,COL  LAYER,ROW,COL  LAYER,ROW,COL
 ---------------------------------------------------------------------------
  1  0.2179E-04
   (  2,  2,  1)



 OUTPUT CONTROL FOR STRESS PERIOD    2   TIME STEP    2
    SAVE HEAD FOR ALL LAYERS
    SAVE DRAWDOWN FOR ALL LAYERS
    SAVE BUDGET
    PRINT BUDGET
 UBDSV1 SAVING "         STORAGE" ON UNIT   9 AT TIME STEP     2, STRESS PERIOD   2
 UBDSV2 SAVING "   CONSTANT HEAD" ON UNIT   9 AT TIME STEP     2, STRESS PERIOD   2
 UBDSV1 SAVING "FLOW RIGHT FACE " ON UNIT   9 AT TIME STEP     2, STRESS PERIOD   2
 UBDSV1 SAVING "FLOW FRONT FACE " ON UNIT   9 AT TIME STEP     2, STRESS PERIOD   2
 UBDSV1 SAVING "FLOW LOWER FACE " ON UNIT   9 AT TIME STEP     2, STRESS PERIOD   2
 UBDSV4 SAVING "  STREAM LEAKAGE" ON UNIT   9 AT TIME STEP     2, STRESS PERIOD   2



 STREAM LISTING     PERIOD      2   STEP        2

 LAYER ROW COL. STREAM  RCH.   FLOW INTO    STREAM     FLOW OUT OF   OVRLND.    DIRECT     STREAM      STREAM      STREAM     STREAM  STREAMBED   FLOW TO   CHNG. UNSAT. 
                SEG.NO.  NO.   STRM. RCH.    LOSS       STRM. RCH.   RUNOFF     PRECIP       ET         HEAD        DEPTH      WIDTH  CONDCTNC.   WAT. TAB.

   1    2    2     1     1    1.0000E+00 -8.9848E-06   1.0000E+00  0.000E+00  0.000E+00  0.000E+00  2.97978E+00  1.000E+00  1.000E+00  4.444E-04  0.000E+00  0.000E+00
   1    2    3     1     2    1.0000E+00 -3.0181E-05   1.0000E+00  0.000E+00  0.000E+00  0.000E+00  2.93755E+00  1.000E+00  1.000E+00  4.834E-04  0.000E+00  0.000E+00
   1    3    3     1     3    1.0000E+00 -1.1937E-04   1.0002E+00  0.000E+00  0.000E+00  0.000E+00  2.87283E+00  1.000E+00  1.000E+00  9.388E-04  0.000E+00  0.000E+00
   1    3    4     1     4    1.0002E+00 -8.9380E-05   1.0002E+00  0.000E+00  0.000E+00  0.000E+00  2.80883E+00  1.000E+00  1.000E+00  4.676E-04  0.000E+00  0.000E+00
   1    4    4     1     5    1.0002E+00 -2.4425E-04   1.0005E+00  0.000E+00  0.000E+00  0.000E+00  2.74411E+00  1.000E+00  1.000E+00  9.546E-04  0.000E+00  0.000E+00
   1    4    5     1     6    1.0005E+00 -1.4451E-04   1.0006E+00  0.000E+00  0.000E+00  0.000E+00  2.68011E+00  1.000E+00  1.000E+00  4.518E-04  0.000E+00  0.000E+00
   1    5    5     1     7    1.0006E+00 -3.7320E-04   1.0010E+00  0.000E+00  0.000E+00  0.000E+00  2.61540E+00  1.000E+00  1.000E+00  9.704E-04  0.000E+00  0.000E+00
   1    5    6     1     8    1.0010E+00 -1.9558E-04   1.0012E+00  0.000E+00  0.000E+00  0.000E+00  2.55140E+00  1.000E+00  1.000E+00  4.360E-04  0.000E+00  0.000E+00
   1    6    6     1     9    1.0012E+00 -5.0622E-04   1.0017E+00  0.000E+00  0.000E+00  0.000E+00  2.48668E+00  1.000E+00  1.000E+00  9.862E-04  0.000E+00  0.000E+00
   1    6    7     1    10    1.0017E+00 -2.4257E-04   1.0020E+00  0.000E+00  0.000E+00  0.000E+00  2.42268E+00  1.000E+00  1.000E+00  4.202E-04  0.000E+00  0.000E+00
   1    7    7     1    11    1.0020E+00 -6.4331E-04   1.0026E+00  0.000E+00  0.000E+00  0.000E+00  2.35796E+00  1.000E+00  1.000E+00  1.002E-03  0.000E+00  0.000E+00
   1    7    8     1    12    1.0026E+00 -2.8550E-04   1.0029E+00  0.000E+00  0.000E+00  0.000E+00  2.29396E+00  1.000E+00  1.000E+00  4.044E-04  0.000E+00  0.000E+00
   1    8    8     1    13    1.0029E+00 -7.8446E-04   1.0037E+00  0.000E+00  0.000E+00  0.000E+00  2.22924E+00  1.000E+00  1.000E+00  1.018E-03  0.000E+00  0.000E+00
   1    8    9     1    14    1.0037E+00 -3.2436E-04   1.0040E+00  0.000E+00  0.000E+00  0.000E+00  2.16524E+00  1.000E+00  1.000E+00  3.886E-04  0.000E+00  0.000E+00
   1    9    9     1    15    1.0040E+00 -9.2969E-04   1.0049E+00  0.000E+00  0.000E+00  0.000E+00  2.10052E+00  1.000E+00  1.000E+00  1.034E-03  0.000E+00  0.000E+00
   1    9   10     1    16    1.0049E+00 -3.5915E-04   1.0053E+00  0.000E+00  0.000E+00  0.000E+00  2.03652E+00  1.000E+00  1.000E+00  3.728E-04  0.000E+00  0.000E+00
   1   10   10     1    17    1.0053E+00 -2.1276E-04   1.0055E+00  0.000E+00  0.000E+00  0.000E+00  2.00978E+00  1.000E+00  1.000E+00  2.149E-04  0.000E+00  0.000E+00
   1   10   11     2     1    1.0055E+00 -4.6601E-04   1.0060E+00  0.000E+00  0.000E+00  0.000E+00  1.97911E+00  1.000E+00  1.000E+00  4.565E-04  0.000E+00  0.000E+00
   1   11   11     2     2    1.0060E+00 -1.0243E-03   1.0070E+00  0.000E+00  0.000E+00  0.000E+00  1.91502E+00  1.000E+00  1.000E+00  9.441E-04  0.000E+00  0.000E+00
   1   11   12     2     3    1.0070E+00 -5.2220E-04   1.0075E+00  0.000E+00  0.000E+00  0.000E+00  1.85102E+00  1.000E+00  1.000E+00  4.545E-04  0.000E+00  0.000E+00
   1   12   12     2     4    1.0075E+00 -1.1851E-03   1.0087E+00  0.000E+00  0.000E+00  0.000E+00  1.78557E+00  1.000E+00  1.000E+00  9.759E-04  0.000E+00  0.000E+00
   1   12   13     2     5    1.0087E+00 -5.4040E-04   1.0092E+00  0.000E+00  0.000E+00  0.000E+00  1.72157E+00  1.000E+00  1.000E+00  4.227E-04  0.000E+00  0.000E+00
   1   13   13     2     6    1.0092E+00 -1.3542E-03   1.0106E+00  0.000E+00  0.000E+00  0.000E+00  1.65611E+00  1.000E+00  1.000E+00  1.008E-03  0.000E+00  0.000E+00
   1   13   14     2     7    1.0106E+00 -5.5037E-04   1.0111E+00  0.000E+00  0.000E+00  0.000E+00  1.59211E+00  1.000E+00  1.000E+00  3.909E-04  0.000E+00  0.000E+00
   1   14   14     2     8    1.0111E+00 -1.5314E-03   1.0127E+00  0.000E+00  0.000E+00  0.000E+00  1.52666E+00  1.000E+00  1.000E+00  1.039E-03  0.000E+00  0.000E+00
   1   14   15     2     9    1.0127E+00 -5.5211E-04   1.0132E+00  0.000E+00  0.000E+00  0.000E+00  1.46266E+00  1.000E+00  1.000E+00  3.591E-04  0.000E+00  0.000E+00
   1   15   15     2    10    1.0132E+00 -1.7169E-03   1.0149E+00  0.000E+00  0.000E+00  0.000E+00  1.39720E+00  1.000E+00  1.000E+00  1.071E-03  0.000E+00  0.000E+00
   1   15   16     2    11    1.0149E+00 -5.4562E-04   1.0155E+00  0.000E+00  0.000E+00  0.000E+00  1.33320E+00  1.000E+00  1.000E+00  3.274E-04  0.000E+00  0.000E+00
   1   16   16     2    12    1.0155E+00 -1.9107E-03   1.0174E+00  0.000E+00  0.000E+00  0.000E+00  1.26775E+00  1.000E+00  1.000E+00  1.103E-03  0.000E+00  0.000E+00
   1   16   17     2    13    1.0174E+00 -5.3090E-04   1.0179E+00  0.000E+00  0.000E+00  0.000E+00  1.20375E+00  1.000E+00  1.000E+00  2.956E-04  0.000E+00  0.000E+00
   1   17   17     2    14    1.0179E+00 -2.1127E-03   1.0200E+00  0.000E+00  0.000E+00  0.000E+00  1.13829E+00  1.000E+00  1.000E+00  1.135E-03  0.000E+00  0.000E+00
   1   17   18     2    15    1.0200E+00 -5.0796E-04   1.0205E+00  0.000E+00  0.000E+00  0.000E+00  1.07429E+00  1.000E+00  1.000E+00  2.638E-04  0.000E+00  0.000E+00
   1   18   18     2    16    1.0205E+00 -1.3386E-03   1.0219E+00  0.000E+00  0.000E+00  0.000E+00  1.03111E+00  1.000E+00  1.000E+00  6.799E-04  0.000E+00  0.000E+00



 UBDSV3 SAVING "           GW ET" ON UNIT   9 AT TIME STEP     2, STRESS PERIOD   2
 UBDSV3 SAVING "    UZF RECHARGE" ON UNIT   9 AT TIME STEP     2, STRESS PERIOD   2
 UBDSV3 SAVING " SURFACE LEAKAGE" ON UNIT   9 AT TIME STEP     2, STRESS PERIOD   2
 UBDSV3 SAVING "       HORT+DUNN" ON UNIT   9 AT TIME STEP     2, STRESS PERIOD   2
 UBDSV3 SAVING "  STORAGE CHANGE" ON UNIT   9 AT TIME STEP     2, STRESS PERIOD   2


UNSATURATED ZONE PACKAGE VOLUMETRIC BUDGET FOR  TIME STEP     2 STRESS PERIOD    2
  ------------------------------------------------------------------------------



     CUMULATIVE VOLUMES      L**3       RATES FOR THIS TIME STEP      L**3/T
     ------------------                 ------------------------

           IN:                                      IN:
           ---                                      ---
        INFILTRATION =       0.0000E+00          INFILTRATION =       0.0000E+00

          OUT:                                     OUT:
          ----                                     ----
              UZF ET =       0.0000E+00                UZF ET =       0.0000E+00
        UZF RECHARGE =       0.0000E+00          UZF RECHARGE =       0.0000E+00

            IN - OUT =       0.0000E+00              IN - OUT =       0.0000E+00

          STORAGE:                                 STORAGE:
          --------                                 --------
      STORAGE CHANGE =       0.0000E+00        STORAGE CHANGE =       0.0000E+00

 PERCENT DISCREPANCY IS DIFFERENCE BETWEEN IN-OUT MINUS CHANGE IN STORAGE
 DIVIDED BY THE AVERAGE OF IN AND OUT TIMES 100

 PERCENT DISCREPANCY =           0.00     PERCENT DISCREPANCY =           0.00







 HEAD WILL BE SAVED ON UNIT   37 AT END OF TIME STEP    2, STRESS PERIOD    2

 DRAWDOWN WILL BE SAVED ON UNIT   38 AT END OF TIME STEP    2, STRESS PERIOD    2
1
  VOLUMETRIC BUDGET FOR ENTIRE MODEL AT END OF TIME STEP    2, STRESS PERIOD   2
  ------------------------------------------------------------------------------

     CUMULATIVE VOLUMES      L**3       RATES FOR THIS TIME STEP      L**3/T
     ------------------                 ------------------------

           IN:                                      IN:
           ---                                      ---
             STORAGE =       7.3085E-07               STORAGE =       4.7684E-07
       CONSTANT HEAD =       6.4717E-02         CONSTANT HEAD =       2.1876E-02
      STREAM LEAKAGE =           0.0000        STREAM LEAKAGE =           0.0000
        UZF RECHARGE =           0.0000          UZF RECHARGE =           0.0000
               GW ET =           0.0000                 GW ET =           0.0000
     SURFACE LEAKAGE =           0.0000       SURFACE LEAKAGE =           0.0000

            TOTAL IN =       6.4718E-02              TOTAL IN =       2.1876E-02

          OUT:                                     OUT:
          ----                                     ----
             STORAGE =       4.0603E-07               STORAGE =           0.0000
       CONSTANT HEAD =           0.0000         CONSTANT HEAD =           0.0000
      STREAM LEAKAGE =       6.4739E-02        STREAM LEAKAGE =       2.1883E-02
        UZF RECHARGE =           0.0000          UZF RECHARGE =           0.0000
               GW ET =           0.0000                 GW ET =           0.0000
     SURFACE LEAKAGE =           0.0000       SURFACE LEAKAGE =           0.0000

           TOTAL OUT =       6.4740E-02             TOTAL OUT =       2.1883E-02

            IN - OUT =      -2.1935E-05              IN - OUT =      -6.5435E-06

 PERCENT DISCREPANCY =          -0.03     PERCENT DISCREPANCY =          -0.03






         TIME SUMMARY AT END OF TIME STEP    2 IN STRESS PERIOD    2
                    SECONDS     MINUTES      HOURS       DAYS        YEARS
                    -----------------------------------------------------------
   TIME STEP LENGTH  1.1069     1.84491E-02 3.07485E-04 1.28119E-05 3.50770E-08
 STRESS PERIOD TIME  1.9584     3.26408E-02 5.44013E-04 2.26672E-05 6.20594E-08
         TOTAL TIME  2.9584     4.93074E-02 8.21790E-04 3.42413E-05 9.37475E-08
1
 
 SOLVING FOR HEAD 
     1 CALLS TO PCG ROUTINE FOR TIME STEP     3 IN STRESS PERIOD    2
     1 TOTAL ITERATIONS

 MAXIMUM HEAD CHANGE FOR EACH ITERATION (1 INDICATES THE FIRST INNER ITERATION):

    HEAD CHANGE    HEAD CHANGE    HEAD CHANGE    HEAD CHANGE    HEAD CHANGE 
   LAYER,ROW,COL  LAYER,ROW,COL  LAYER,ROW,COL  LAYER,ROW,COL  LAYER,ROW,COL
 ---------------------------------------------------------------------------
  1 -0.1475E-08
   (  2, 11, 15)

 MAXIMUM RESIDUAL FOR EACH ITERATION (1 INDICATES THE FIRST INNER ITERATION):

    RESIDUAL       RESIDUAL       RESIDUAL       RESIDUAL       RESIDUAL    
   LAYER,ROW,COL  LAYER,ROW,COL  LAYER,ROW,COL  LAYER,ROW,COL  LAYER,ROW,COL
 ---------------------------------------------------------------------------
  1  0.1760E-04
   (  2,  2,  1)



 OUTPUT CONTROL FOR STRESS PERIOD    2   TIME STEP    3
    SAVE HEAD FOR ALL LAYERS
    SAVE DRAWDOWN FOR ALL LAYERS
    SAVE BUDGET
    PRINT BUDGET
 UBDSV1 SAVING "         STORAGE" ON UNIT   9 AT TIME STEP     3, STRESS PERIOD   2
 UBDSV2 SAVING "   CONSTANT HEAD" ON UNIT   9 AT TIME STEP     3, STRESS PERIOD   2
 UBDSV1 SAVING "FLOW RIGHT FACE " ON UNIT   9 AT TIME STEP     3, STRESS PERIOD   2
 UBDSV1 SAVING "FLOW FRONT FACE " ON UNIT   9 AT TIME STEP     3, STRESS PERIOD   2
 UBDSV1 SAVING "FLOW LOWER FACE " ON UNIT   9 AT TIME STEP     3, STRESS PERIOD   2
 UBDSV4 SAVING "  STREAM LEAKAGE" ON UNIT   9 AT TIME STEP     3, STRESS PERIOD   2



 STREAM LISTING     PERIOD      2   STEP        3

 LAYER ROW COL. STREAM  RCH.   FLOW INTO    STREAM     FLOW OUT OF   OVRLND.    DIRECT     STREAM      STREAM      STREAM     STREAM  STREAMBED   FLOW TO   CHNG. UNSAT. 
                SEG.NO.  NO.   STRM. RCH.    LOSS       STRM. RCH.   RUNOFF     PRECIP       ET         HEAD        DEPTH      WIDTH  CONDCTNC.   WAT. TAB.

   1    2    2     1     1    1.0000E+00 -8.9848E-06   1.0000E+00  0.000E+00  0.000E+00  0.000E+00  2.97978E+00  1.000E+00  1.000E+00  4.444E-04  0.000E+00  0.000E+00
   1    2    3     1     2    1.0000E+00 -3.0181E-05   1.0000E+00  0.000E+00  0.000E+00  0.000E+00  2.93755E+00  1.000E+00  1.000E+00  4.834E-04  0.000E+00  0.000E+00
   1    3    3     1     3    1.0000E+00 -1.1937E-04   1.0002E+00  0.000E+00  0.000E+00  0.000E+00  2.87283E+00  1.000E+00  1.000E+00  9.388E-04  0.000E+00  0.000E+00
   1    3    4     1     4    1.0002E+00 -8.9380E-05   1.0002E+00  0.000E+00  0.000E+00  0.000E+00  2.80883E+00  1.000E+00  1.000E+00  4.676E-04  0.000E+00  0.000E+00
   1    4    4     1     5    1.0002E+00 -2.4425E-04   1.0005E+00  0.000E+00  0.000E+00  0.000E+00  2.74411E+00  1.000E+00  1.000E+00  9.546E-04  0.000E+00  0.000E+00
   1    4    5     1     6    1.0005E+00 -1.4451E-04   1.0006E+00  0.000E+00  0.000E+00  0.000E+00  2.68011E+00  1.000E+00  1.000E+00  4.518E-04  0.000E+00  0.000E+00
   1    5    5     1     7    1.0006E+00 -3.7320E-04   1.0010E+00  0.000E+00  0.000E+00  0.000E+00  2.61540E+00  1.000E+00  1.000E+00  9.704E-04  0.000E+00  0.000E+00
   1    5    6     1     8    1.0010E+00 -1.9558E-04   1.0012E+00  0.000E+00  0.000E+00  0.000E+00  2.55140E+00  1.000E+00  1.000E+00  4.360E-04  0.000E+00  0.000E+00
   1    6    6     1     9    1.0012E+00 -5.0622E-04   1.0017E+00  0.000E+00  0.000E+00  0.000E+00  2.48668E+00  1.000E+00  1.000E+00  9.862E-04  0.000E+00  0.000E+00
   1    6    7     1    10    1.0017E+00 -2.4257E-04   1.0020E+00  0.000E+00  0.000E+00  0.000E+00  2.42268E+00  1.000E+00  1.000E+00  4.202E-04  0.000E+00  0.000E+00
   1    7    7     1    11    1.0020E+00 -6.4331E-04   1.0026E+00  0.000E+00  0.000E+00  0.000E+00  2.35796E+00  1.000E+00  1.000E+00  1.002E-03  0.000E+00  0.000E+00
   1    7    8     1    12    1.0026E+00 -2.8550E-04   1.0029E+00  0.000E+00  0.000E+00  0.000E+00  2.29396E+00  1.000E+00  1.000E+00  4.044E-04  0.000E+00  0.000E+00
   1    8    8     1    13    1.0029E+00 -7.8446E-04   1.0037E+00  0.000E+00  0.000E+00  0.000E+00  2.22924E+00  1.000E+00  1.000E+00  1.018E-03  0.000E+00  0.000E+00
   1    8    9     1    14    1.0037E+00 -3.2436E-04   1.0040E+00  0.000E+00  0.000E+00  0.000E+00  2.16524E+00  1.000E+00  1.000E+00  3.886E-04  0.000E+00  0.000E+00
   1    9    9     1    15    1.0040E+00 -9.2969E-04   1.0049E+00  0.000E+00  0.000E+00  0.000E+00  2.10052E+00  1.000E+00  1.000E+00  1.034E-03  0.000E+00  0.000E+00
   1    9   10     1    16    1.0049E+00 -3.5915E-04   1.0053E+00  0.000E+00  0.000E+00  0.000E+00  2.03652E+00  1.000E+00  1.000E+00  3.728E-04  0.000E+00  0.000E+00
   1   10   10     1    17    1.0053E+00 -2.1276E-04   1.0055E+00  0.000E+00  0.000E+00  0.000E+00  2.00978E+00  1.000E+00  1.000E+00  2.149E-04  0.000E+00  0.000E+00
   1   10   11     2     1    1.0055E+00 -4.6601E-04   1.0060E+00  0.000E+00  0.000E+00  0.000E+00  1.97911E+00  1.000E+00  1.000E+00  4.565E-04  0.000E+00  0.000E+00
   1   11   11     2     2    1.0060E+00 -1.0243E-03   1.0070E+00  0.000E+00  0.000E+00  0.000E+00  1.91502E+00  1.000E+00  1.000E+00  9.441E-04  0.000E+00  0.000E+00
   1   11   12     2     3    1.0070E+00 -5.2220E-04   1.0075E+00  0.000E+00  0.000E+00  0.000E+00  1.85102E+00  1.000E+00  1.000E+00  4.545E-04  0.000E+00  0.000E+00
   1   12   12     2     4    1.0075E+00 -1.1851E-03   1.0087E+00  0.000E+00  0.000E+00  0.000E+00  1.78557E+00  1.000E+00  1.000E+00  9.759E-04  0.000E+00  0.000E+00
   1   12   13     2     5    1.0087E+00 -5.4040E-04   1.0092E+00  0.000E+00  0.000E+00  0.000E+00  1.72157E+00  1.000E+00  1.000E+00  4.227E-04  0.000E+00  0.000E+00
   1   13   13     2     6    1.0092E+00 -1.3542E-03   1.0106E+00  0.000E+00  0.000E+00  0.000E+00  1.65611E+00  1.000E+00  1.000E+00  1.008E-03  0.000E+00  0.000E+00
   1   13   14     2     7    1.0106E+00 -5.5037E-04   1.0111E+00  0.000E+00  0.000E+00  0.000E+00  1.59211E+00  1.000E+00  1.000E+00  3.909E-04  0.000E+00  0.000E+00
   1   14   14     2     8    1.0111E+00 -1.5314E-03   1.0127E+00  0.000E+00  0.000E+00  0.000E+00  1.52666E+00  1.000E+00  1.000E+00  1.039E-03  0.000E+00  0.000E+00
   1   14   15     2     9    1.0127E+00 -5.5211E-04   1.0132E+00  0.000E+00  0.000E+00  0.000E+00  1.46266E+00  1.000E+00  1.000E+00  3.591E-04  0.000E+00  0.000E+00
   1   15   15     2    10    1.0132E+00 -1.7169E-03   1.0149E+00  0.000E+00  0.000E+00  0.000E+00  1.39720E+00  1.000E+00  1.000E+00  1.071E-03  0.000E+00  0.000E+00
   1   15   16     2    11    1.0149E+00 -5.4562E-04   1.0155E+00  0.000E+00  0.000E+00  0.000E+00  1.33320E+00  1.000E+00  1.000E+00  3.274E-04  0.000E+00  0.000E+00
   1   16   16     2    12    1.0155E+00 -1.9107E-03   1.0174E+00  0.000E+00  0.000E+00  0.000E+00  1.26775E+00  1.000E+00  1.000E+00  1.103E-03  0.000E+00  0.000E+00
   1   16   17     2    13    1.0174E+00 -5.3090E-04   1.0179E+00  0.000E+00  0.000E+00  0.000E+00  1.20375E+00  1.000E+00  1.000E+00  2.956E-04  0.000E+00  0.000E+00
   1   17   17     2    14    1.0179E+00 -2.1127E-03   1.0200E+00  0.000E+00  0.000E+00  0.000E+00  1.13829E+00  1.000E+00  1.000E+00  1.135E-03  0.000E+00  0.000E+00
   1   17   18     2    15    1.0200E+00 -5.0796E-04   1.0205E+00  0.000E+00  0.000E+00  0.000E+00  1.07429E+00  1.000E+00  1.000E+00  2.638E-04  0.000E+00  0.000E+00
   1   18   18     2    16    1.0205E+00 -1.3386E-03   1.0219E+00  0.000E+00  0.000E+00  0.000E+00  1.03111E+00  1.000E+00  1.000E+00  6.799E-04  0.000E+00  0.000E+00



 UBDSV3 SAVING "           GW ET" ON UNIT   9 AT TIME STEP     3, STRESS PERIOD   2
 UBDSV3 SAVING "    UZF RECHARGE" ON UNIT   9 AT TIME STEP     3, STRESS PERIOD   2
 UBDSV3 SAVING " SURFACE LEAKAGE" ON UNIT   9 AT TIME STEP     3, STRESS PERIOD   2
 UBDSV3 SAVING "       HORT+DUNN" ON UNIT   9 AT TIME STEP     3, STRESS PERIOD   2
 UBDSV3 SAVING "  STORAGE CHANGE" ON UNIT   9 AT TIME STEP     3, STRESS PERIOD   2


UNSATURATED ZONE PACKAGE VOLUMETRIC BUDGET FOR  TIME STEP     3 STRESS PERIOD    2
  ------------------------------------------------------------------------------



     CUMULATIVE VOLUMES      L**3       RATES FOR THIS TIME STEP      L**3/T
     ------------------                 ------------------------

           IN:                                      IN:
           ---                                      ---
        INFILTRATION =       0.0000E+00          INFILTRATION =       0.0000E+00

          OUT:                                     OUT:
          ----                                     ----
              UZF ET =       0.0000E+00                UZF ET =       0.0000E+00
        UZF RECHARGE =       0.0000E+00          UZF RECHARGE =       0.0000E+00

            IN - OUT =       0.0000E+00              IN - OUT =       0.0000E+00

          STORAGE:                                 STORAGE:
          --------                                 --------
      STORAGE CHANGE =       0.0000E+00        STORAGE CHANGE =       0.0000E+00

 PERCENT DISCREPANCY IS DIFFERENCE BETWEEN IN-OUT MINUS CHANGE IN STORAGE
 DIVIDED BY THE AVERAGE OF IN AND OUT TIMES 100

 PERCENT DISCREPANCY =           0.00     PERCENT DISCREPANCY =           0.00







 HEAD WILL BE SAVED ON UNIT   37 AT END OF TIME STEP    3, STRESS PERIOD    2

 DRAWDOWN WILL BE SAVED ON UNIT   38 AT END OF TIME STEP    3, STRESS PERIOD    2
1
  VOLUMETRIC BUDGET FOR ENTIRE MODEL AT END OF TIME STEP    3, STRESS PERIOD   2
  ------------------------------------------------------------------------------

     CUMULATIVE VOLUMES      L**3       RATES FOR THIS TIME STEP      L**3/T
     ------------------                 ------------------------

           IN:                                      IN:
           ---                                      ---
             STORAGE =       7.3085E-07               STORAGE =           0.0000
       CONSTANT HEAD =       9.6198E-02         CONSTANT HEAD =       2.1876E-02
      STREAM LEAKAGE =           0.0000        STREAM LEAKAGE =           0.0000
        UZF RECHARGE =           0.0000          UZF RECHARGE =           0.0000
               GW ET =           0.0000                 GW ET =           0.0000
     SURFACE LEAKAGE =           0.0000       SURFACE LEAKAGE =           0.0000

            TOTAL IN =       9.6199E-02              TOTAL IN =       2.1876E-02

          OUT:                                     OUT:
          ----                                     ----
             STORAGE =       4.0603E-07               STORAGE =           0.0000
       CONSTANT HEAD =           0.0000         CONSTANT HEAD =           0.0000
      STREAM LEAKAGE =       9.6230E-02        STREAM LEAKAGE =       2.1883E-02
        UZF RECHARGE =           0.0000          UZF RECHARGE =           0.0000
               GW ET =           0.0000                 GW ET =           0.0000
     SURFACE LEAKAGE =           0.0000       SURFACE LEAKAGE =           0.0000

           TOTAL OUT =       9.6230E-02             TOTAL OUT =       2.1883E-02

            IN - OUT =      -3.1300E-05              IN - OUT =      -6.5081E-06

 PERCENT DISCREPANCY =          -0.03     PERCENT DISCREPANCY =          -0.03






         TIME SUMMARY AT END OF TIME STEP    3 IN STRESS PERIOD    2
                    SECONDS     MINUTES      HOURS       DAYS        YEARS
                    -----------------------------------------------------------
   TIME STEP LENGTH  1.4390     2.39839E-02 3.99731E-04 1.66555E-05 4.56002E-08
 STRESS PERIOD TIME  3.3975     5.66246E-02 9.43744E-04 3.93227E-05 1.07660E-07
         TOTAL TIME  4.3975     7.32913E-02 1.22152E-03 5.08967E-05 1.39348E-07
1
 
 SOLVING FOR HEAD 
     1 CALLS TO PCG ROUTINE FOR TIME STEP     4 IN STRESS PERIOD    2
     1 TOTAL ITERATIONS

 MAXIMUM HEAD CHANGE FOR EACH ITERATION (1 INDICATES THE FIRST INNER ITERATION):

    HEAD CHANGE    HEAD CHANGE    HEAD CHANGE    HEAD CHANGE    HEAD CHANGE 
   LAYER,ROW,COL  LAYER,ROW,COL  LAYER,ROW,COL  LAYER,ROW,COL  LAYER,ROW,COL
 ---------------------------------------------------------------------------
  1 -0.2077E-08
   (  2,  6, 17)

 MAXIMUM RESIDUAL FOR EACH ITERATION (1 INDICATES THE FIRST INNER ITERATION):

    RESIDUAL       RESIDUAL       RESIDUAL       RESIDUAL       RESIDUAL    
   LAYER,ROW,COL  LAYER,ROW,COL  LAYER,ROW,COL  LAYER,ROW,COL  LAYER,ROW,COL
 ---------------------------------------------------------------------------
  1  0.1487E-04
   (  2,  2,  1)



 OUTPUT CONTROL FOR STRESS PERIOD    2   TIME STEP    4
    SAVE HEAD FOR ALL LAYERS
    SAVE DRAWDOWN FOR ALL LAYERS
    SAVE BUDGET
    PRINT BUDGET
 UBDSV1 SAVING "         STORAGE" ON UNIT   9 AT TIME STEP     4, STRESS PERIOD   2
 UBDSV2 SAVING "   CONSTANT HEAD" ON UNIT   9 AT TIME STEP     4, STRESS PERIOD   2
 UBDSV1 SAVING "FLOW RIGHT FACE " ON UNIT   9 AT TIME STEP     4, STRESS PERIOD   2
 UBDSV1 SAVING "FLOW FRONT FACE " ON UNIT   9 AT TIME STEP     4, STRESS PERIOD   2
 UBDSV1 SAVING "FLOW LOWER FACE " ON UNIT   9 AT TIME STEP     4, STRESS PERIOD   2
 UBDSV4 SAVING "  STREAM LEAKAGE" ON UNIT   9 AT TIME STEP     4, STRESS PERIOD   2



 STREAM LISTING     PERIOD      2   STEP        4

 LAYER ROW COL. STREAM  RCH.   FLOW INTO    STREAM     FLOW OUT OF   OVRLND.    DIRECT     STREAM      STREAM      STREAM     STREAM  STREAMBED   FLOW TO   CHNG. UNSAT. 
                SEG.NO.  NO.   STRM. RCH.    LOSS       STRM. RCH.   RUNOFF     PRECIP       ET         HEAD        DEPTH      WIDTH  CONDCTNC.   WAT. TAB.

   1    2    2     1     1    1.0000E+00 -8.9848E-06   1.0000E+00  0.000E+00  0.000E+00  0.000E+00  2.97978E+00  1.000E+00  1.000E+00  4.444E-04  0.000E+00  0.000E+00
   1    2    3     1     2    1.0000E+00 -3.0181E-05   1.0000E+00  0.000E+00  0.000E+00  0.000E+00  2.93755E+00  1.000E+00  1.000E+00  4.834E-04  0.000E+00  0.000E+00
   1    3    3     1     3    1.0000E+00 -1.1937E-04   1.0002E+00  0.000E+00  0.000E+00  0.000E+00  2.87283E+00  1.000E+00  1.000E+00  9.388E-04  0.000E+00  0.000E+00
   1    3    4     1     4    1.0002E+00 -8.9380E-05   1.0002E+00  0.000E+00  0.000E+00  0.000E+00  2.80883E+00  1.000E+00  1.000E+00  4.676E-04  0.000E+00  0.000E+00
   1    4    4     1     5    1.0002E+00 -2.4425E-04   1.0005E+00  0.000E+00  0.000E+00  0.000E+00  2.74411E+00  1.000E+00  1.000E+00  9.546E-04  0.000E+00  0.000E+00
   1    4    5     1     6    1.0005E+00 -1.4451E-04   1.0006E+00  0.000E+00  0.000E+00  0.000E+00  2.68011E+00  1.000E+00  1.000E+00  4.518E-04  0.000E+00  0.000E+00
   1    5    5     1     7    1.0006E+00 -3.7320E-04   1.0010E+00  0.000E+00  0.000E+00  0.000E+00  2.61540E+00  1.000E+00  1.000E+00  9.704E-04  0.000E+00  0.000E+00
   1    5    6     1     8    1.0010E+00 -1.9558E-04   1.0012E+00  0.000E+00  0.000E+00  0.000E+00  2.55140E+00  1.000E+00  1.000E+00  4.360E-04  0.000E+00  0.000E+00
   1    6    6     1     9    1.0012E+00 -5.0622E-04   1.0017E+00  0.000E+00  0.000E+00  0.000E+00  2.48668E+00  1.000E+00  1.000E+00  9.862E-04  0.000E+00  0.000E+00
   1    6    7     1    10    1.0017E+00 -2.4257E-04   1.0020E+00  0.000E+00  0.000E+00  0.000E+00  2.42268E+00  1.000E+00  1.000E+00  4.202E-04  0.000E+00  0.000E+00
   1    7    7     1    11    1.0020E+00 -6.4331E-04   1.0026E+00  0.000E+00  0.000E+00  0.000E+00  2.35796E+00  1.000E+00  1.000E+00  1.002E-03  0.000E+00  0.000E+00
   1    7    8     1    12    1.0026E+00 -2.8550E-04   1.0029E+00  0.000E+00  0.000E+00  0.000E+00  2.29396E+00  1.000E+00  1.000E+00  4.044E-04  0.000E+00  0.000E+00
   1    8    8     1    13    1.0029E+00 -7.8446E-04   1.0037E+00  0.000E+00  0.000E+00  0.000E+00  2.22924E+00  1.000E+00  1.000E+00  1.018E-03  0.000E+00  0.000E+00
   1    8    9     1    14    1.0037E+00 -3.2436E-04   1.0040E+00  0.000E+00  0.000E+00  0.000E+00  2.16524E+00  1.000E+00  1.000E+00  3.886E-04  0.000E+00  0.000E+00
   1    9    9     1    15    1.0040E+00 -9.2969E-04   1.0049E+00  0.000E+00  0.000E+00  0.000E+00  2.10052E+00  1.000E+00  1.000E+00  1.034E-03  0.000E+00  0.000E+00
   1    9   10     1    16    1.0049E+00 -3.5915E-04   1.0053E+00  0.000E+00  0.000E+00  0.000E+00  2.03652E+00  1.000E+00  1.000E+00  3.728E-04  0.000E+00  0.000E+00
   1   10   10     1    17    1.0053E+00 -2.1276E-04   1.0055E+00  0.000E+00  0.000E+00  0.000E+00  2.00978E+00  1.000E+00  1.000E+00  2.149E-04  0.000E+00  0.000E+00
   1   10   11     2     1    1.0055E+00 -4.6601E-04   1.0060E+00  0.000E+00  0.000E+00  0.000E+00  1.97911E+00  1.000E+00  1.000E+00  4.565E-04  0.000E+00  0.000E+00
   1   11   11     2     2    1.0060E+00 -1.0243E-03   1.0070E+00  0.000E+00  0.000E+00  0.000E+00  1.91502E+00  1.000E+00  1.000E+00  9.441E-04  0.000E+00  0.000E+00
   1   11   12     2     3    1.0070E+00 -5.2220E-04   1.0075E+00  0.000E+00  0.000E+00  0.000E+00  1.85102E+00  1.000E+00  1.000E+00  4.545E-04  0.000E+00  0.000E+00
   1   12   12     2     4    1.0075E+00 -1.1851E-03   1.0087E+00  0.000E+00  0.000E+00  0.000E+00  1.78557E+00  1.000E+00  1.000E+00  9.759E-04  0.000E+00  0.000E+00
   1   12   13     2     5    1.0087E+00 -5.4040E-04   1.0092E+00  0.000E+00  0.000E+00  0.000E+00  1.72157E+00  1.000E+00  1.000E+00  4.227E-04  0.000E+00  0.000E+00
   1   13   13     2     6    1.0092E+00 -1.3542E-03   1.0106E+00  0.000E+00  0.000E+00  0.000E+00  1.65611E+00  1.000E+00  1.000E+00  1.008E-03  0.000E+00  0.000E+00
   1   13   14     2     7    1.0106E+00 -5.5037E-04   1.0111E+00  0.000E+00  0.000E+00  0.000E+00  1.59211E+00  1.000E+00  1.000E+00  3.909E-04  0.000E+00  0.000E+00
   1   14   14     2     8    1.0111E+00 -1.5314E-03   1.0127E+00  0.000E+00  0.000E+00  0.000E+00  1.52666E+00  1.000E+00  1.000E+00  1.039E-03  0.000E+00  0.000E+00
   1   14   15     2     9    1.0127E+00 -5.5211E-04   1.0132E+00  0.000E+00  0.000E+00  0.000E+00  1.46266E+00  1.000E+00  1.000E+00  3.591E-04  0.000E+00  0.000E+00
   1   15   15     2    10    1.0132E+00 -1.7169E-03   1.0149E+00  0.000E+00  0.000E+00  0.000E+00  1.39720E+00  1.000E+00  1.000E+00  1.071E-03  0.000E+00  0.000E+00
   1   15   16     2    11    1.0149E+00 -5.4562E-04   1.0155E+00  0.000E+00  0.000E+00  0.000E+00  1.33320E+00  1.000E+00  1.000E+00  3.274E-04  0.000E+00  0.000E+00
   1   16   16     2    12    1.0155E+00 -1.9107E-03   1.0174E+00  0.000E+00  0.000E+00  0.000E+00  1.26775E+00  1.000E+00  1.000E+00  1.103E-03  0.000E+00  0.000E+00
   1   16   17     2    13    1.0174E+00 -5.3090E-04   1.0179E+00  0.000E+00  0.000E+00  0.000E+00  1.20375E+00  1.000E+00  1.000E+00  2.956E-04  0.000E+00  0.000E+00
   1   17   17     2    14    1.0179E+00 -2.1127E-03   1.0200E+00  0.000E+00  0.000E+00  0.000E+00  1.13829E+00  1.000E+00  1.000E+00  1.135E-03  0.000E+00  0.000E+00
   1   17   18     2    15    1.0200E+00 -5.0796E-04   1.0205E+00  0.000E+00  0.000E+00  0.000E+00  1.07429E+00  1.000E+00  1.000E+00  2.638E-04  0.000E+00  0.000E+00
   1   18   18     2    16    1.0205E+00 -1.3386E-03   1.0219E+00  0.000E+00  0.000E+00  0.000E+00  1.03111E+00  1.000E+00  1.000E+00  6.799E-04  0.000E+00  0.000E+00



 UBDSV3 SAVING "           GW ET" ON UNIT   9 AT TIME STEP     4, STRESS PERIOD   2
 UBDSV3 SAVING "    UZF RECHARGE" ON UNIT   9 AT TIME STEP     4, STRESS PERIOD   2
 UBDSV3 SAVING " SURFACE LEAKAGE" ON UNIT   9 AT TIME STEP     4, STRESS PERIOD   2
 UBDSV3 SAVING "       HORT+DUNN" ON UNIT   9 AT TIME STEP     4, STRESS PERIOD   2
 UBDSV3 SAVING "  STORAGE CHANGE" ON UNIT   9 AT TIME STEP     4, STRESS PERIOD   2


UNSATURATED ZONE PACKAGE VOLUMETRIC BUDGET FOR  TIME STEP     4 STRESS PERIOD    2
  ------------------------------------------------------------------------------



     CUMULATIVE VOLUMES      L**3       RATES FOR THIS TIME STEP      L**3/T
     ------------------                 ------------------------

           IN:                                      IN:
           ---                                      ---
        INFILTRATION =       0.0000E+00          INFILTRATION =       0.0000E+00

          OUT:                                     OUT:
          ----                                     ----
              UZF ET =       0.0000E+00                UZF ET =       0.0000E+00
        UZF RECHARGE =       0.0000E+00          UZF RECHARGE =       0.0000E+00

            IN - OUT =       0.0000E+00              IN - OUT =       0.0000E+00

          STORAGE:                                 STORAGE:
          --------                                 --------
      STORAGE CHANGE =       0.0000E+00        STORAGE CHANGE =       0.0000E+00

 PERCENT DISCREPANCY IS DIFFERENCE BETWEEN IN-OUT MINUS CHANGE IN STORAGE
 DIVIDED BY THE AVERAGE OF IN AND OUT TIMES 100

 PERCENT DISCREPANCY =           0.00     PERCENT DISCREPANCY =           0.00







 HEAD WILL BE SAVED ON UNIT   37 AT END OF TIME STEP    4, STRESS PERIOD    2

 DRAWDOWN WILL BE SAVED ON UNIT   38 AT END OF TIME STEP    4, STRESS PERIOD    2
1
  VOLUMETRIC BUDGET FOR ENTIRE MODEL AT END OF TIME STEP    4, STRESS PERIOD   2
  ------------------------------------------------------------------------------

     CUMULATIVE VOLUMES      L**3       RATES FOR THIS TIME STEP      L**3/T
     ------------------                 ------------------------

           IN:                                      IN:
           ---                                      ---
             STORAGE =       1.1769E-06               STORAGE =       2.3842E-07
       CONSTANT HEAD =           0.1371         CONSTANT HEAD =       2.1877E-02
      STREAM LEAKAGE =           0.0000        STREAM LEAKAGE =           0.0000
        UZF RECHARGE =           0.0000          UZF RECHARGE =           0.0000
               GW ET =           0.0000                 GW ET =           0.0000
     SURFACE LEAKAGE =           0.0000       SURFACE LEAKAGE =           0.0000

            TOTAL IN =           0.1371              TOTAL IN =       2.1877E-02

          OUT:                                     OUT:
          ----                                     ----
             STORAGE =       4.0603E-07               STORAGE =           0.0000
       CONSTANT HEAD =           0.0000         CONSTANT HEAD =           0.0000
      STREAM LEAKAGE =           0.1372        STREAM LEAKAGE =       2.1883E-02
        UZF RECHARGE =           0.0000          UZF RECHARGE =           0.0000
               GW ET =           0.0000                 GW ET =           0.0000
     SURFACE LEAKAGE =           0.0000       SURFACE LEAKAGE =           0.0000

           TOTAL OUT =           0.1372             TOTAL OUT =       2.1883E-02

            IN - OUT =      -4.2140E-05              IN - OUT =      -5.7928E-06

 PERCENT DISCREPANCY =          -0.03     PERCENT DISCREPANCY =          -0.03






         TIME SUMMARY AT END OF TIME STEP    4 IN STRESS PERIOD    2
                    SECONDS     MINUTES      HOURS       DAYS        YEARS
                    -----------------------------------------------------------
   TIME STEP LENGTH  1.8707     3.11790E-02 5.19650E-04 2.16521E-05 5.92802E-08
 STRESS PERIOD TIME  5.2682     8.78036E-02 1.46339E-03 6.09747E-05 1.66940E-07
         TOTAL TIME  6.2682     0.10447     1.74117E-03 7.25488E-05 1.98628E-07
1
 
 SOLVING FOR HEAD 
     1 CALLS TO PCG ROUTINE FOR TIME STEP     5 IN STRESS PERIOD    2
     1 TOTAL ITERATIONS

 MAXIMUM HEAD CHANGE FOR EACH ITERATION (1 INDICATES THE FIRST INNER ITERATION):

    HEAD CHANGE    HEAD CHANGE    HEAD CHANGE    HEAD CHANGE    HEAD CHANGE 
   LAYER,ROW,COL  LAYER,ROW,COL  LAYER,ROW,COL  LAYER,ROW,COL  LAYER,ROW,COL
 ---------------------------------------------------------------------------
  1  0.1862E-08
   (  2,  5, 17)

 MAXIMUM RESIDUAL FOR EACH ITERATION (1 INDICATES THE FIRST INNER ITERATION):

    RESIDUAL       RESIDUAL       RESIDUAL       RESIDUAL       RESIDUAL    
   LAYER,ROW,COL  LAYER,ROW,COL  LAYER,ROW,COL  LAYER,ROW,COL  LAYER,ROW,COL
 ---------------------------------------------------------------------------
  1  0.1268E-04
   (  2,  2,  1)



 OUTPUT CONTROL FOR STRESS PERIOD    2   TIME STEP    5
    SAVE HEAD FOR ALL LAYERS
    SAVE DRAWDOWN FOR ALL LAYERS
    SAVE BUDGET
    PRINT BUDGET
 UBDSV1 SAVING "         STORAGE" ON UNIT   9 AT TIME STEP     5, STRESS PERIOD   2
 UBDSV2 SAVING "   CONSTANT HEAD" ON UNIT   9 AT TIME STEP     5, STRESS PERIOD   2
 UBDSV1 SAVING "FLOW RIGHT FACE " ON UNIT   9 AT TIME STEP     5, STRESS PERIOD   2
 UBDSV1 SAVING "FLOW FRONT FACE " ON UNIT   9 AT TIME STEP     5, STRESS PERIOD   2
 UBDSV1 SAVING "FLOW LOWER FACE " ON UNIT   9 AT TIME STEP     5, STRESS PERIOD   2
 UBDSV4 SAVING "  STREAM LEAKAGE" ON UNIT   9 AT TIME STEP     5, STRESS PERIOD   2



 STREAM LISTING     PERIOD      2   STEP        5

 LAYER ROW COL. STREAM  RCH.   FLOW INTO    STREAM     FLOW OUT OF   OVRLND.    DIRECT     STREAM      STREAM      STREAM     STREAM  STREAMBED   FLOW TO   CHNG. UNSAT. 
                SEG.NO.  NO.   STRM. RCH.    LOSS       STRM. RCH.   RUNOFF     PRECIP       ET         HEAD        DEPTH      WIDTH  CONDCTNC.   WAT. TAB.

   1    2    2     1     1    1.0000E+00 -8.9848E-06   1.0000E+00  0.000E+00  0.000E+00  0.000E+00  2.97978E+00  1.000E+00  1.000E+00  4.444E-04  0.000E+00  0.000E+00
   1    2    3     1     2    1.0000E+00 -3.0181E-05   1.0000E+00  0.000E+00  0.000E+00  0.000E+00  2.93755E+00  1.000E+00  1.000E+00  4.834E-04  0.000E+00  0.000E+00
   1    3    3     1     3    1.0000E+00 -1.1937E-04   1.0002E+00  0.000E+00  0.000E+00  0.000E+00  2.87283E+00  1.000E+00  1.000E+00  9.388E-04  0.000E+00  0.000E+00
   1    3    4     1     4    1.0002E+00 -8.9380E-05   1.0002E+00  0.000E+00  0.000E+00  0.000E+00  2.80883E+00  1.000E+00  1.000E+00  4.676E-04  0.000E+00  0.000E+00
   1    4    4     1     5    1.0002E+00 -2.4425E-04   1.0005E+00  0.000E+00  0.000E+00  0.000E+00  2.74411E+00  1.000E+00  1.000E+00  9.546E-04  0.000E+00  0.000E+00
   1    4    5     1     6    1.0005E+00 -1.4451E-04   1.0006E+00  0.000E+00  0.000E+00  0.000E+00  2.68011E+00  1.000E+00  1.000E+00  4.518E-04  0.000E+00  0.000E+00
   1    5    5     1     7    1.0006E+00 -3.7320E-04   1.0010E+00  0.000E+00  0.000E+00  0.000E+00  2.61540E+00  1.000E+00  1.000E+00  9.704E-04  0.000E+00  0.000E+00
   1    5    6     1     8    1.0010E+00 -1.9558E-04   1.0012E+00  0.000E+00  0.000E+00  0.000E+00  2.55140E+00  1.000E+00  1.000E+00  4.360E-04  0.000E+00  0.000E+00
   1    6    6     1     9    1.0012E+00 -5.0622E-04   1.0017E+00  0.000E+00  0.000E+00  0.000E+00  2.48668E+00  1.000E+00  1.000E+00  9.862E-04  0.000E+00  0.000E+00
   1    6    7     1    10    1.0017E+00 -2.4257E-04   1.0020E+00  0.000E+00  0.000E+00  0.000E+00  2.42268E+00  1.000E+00  1.000E+00  4.202E-04  0.000E+00  0.000E+00
   1    7    7     1    11    1.0020E+00 -6.4331E-04   1.0026E+00  0.000E+00  0.000E+00  0.000E+00  2.35796E+00  1.000E+00  1.000E+00  1.002E-03  0.000E+00  0.000E+00
   1    7    8     1    12    1.0026E+00 -2.8550E-04   1.0029E+00  0.000E+00  0.000E+00  0.000E+00  2.29396E+00  1.000E+00  1.000E+00  4.044E-04  0.000E+00  0.000E+00
   1    8    8     1    13    1.0029E+00 -7.8446E-04   1.0037E+00  0.000E+00  0.000E+00  0.000E+00  2.22924E+00  1.000E+00  1.000E+00  1.018E-03  0.000E+00  0.000E+00
   1    8    9     1    14    1.0037E+00 -3.2436E-04   1.0040E+00  0.000E+00  0.000E+00  0.000E+00  2.16524E+00  1.000E+00  1.000E+00  3.886E-04  0.000E+00  0.000E+00
   1    9    9     1    15    1.0040E+00 -9.2969E-04   1.0049E+00  0.000E+00  0.000E+00  0.000E+00  2.10052E+00  1.000E+00  1.000E+00  1.034E-03  0.000E+00  0.000E+00
   1    9   10     1    16    1.0049E+00 -3.5915E-04   1.0053E+00  0.000E+00  0.000E+00  0.000E+00  2.03652E+00  1.000E+00  1.000E+00  3.728E-04  0.000E+00  0.000E+00
   1   10   10     1    17    1.0053E+00 -2.1276E-04   1.0055E+00  0.000E+00  0.000E+00  0.000E+00  2.00978E+00  1.000E+00  1.000E+00  2.149E-04  0.000E+00  0.000E+00
   1   10   11     2     1    1.0055E+00 -4.6601E-04   1.0060E+00  0.000E+00  0.000E+00  0.000E+00  1.97911E+00  1.000E+00  1.000E+00  4.565E-04  0.000E+00  0.000E+00
   1   11   11     2     2    1.0060E+00 -1.0243E-03   1.0070E+00  0.000E+00  0.000E+00  0.000E+00  1.91502E+00  1.000E+00  1.000E+00  9.441E-04  0.000E+00  0.000E+00
   1   11   12     2     3    1.0070E+00 -5.2220E-04   1.0075E+00  0.000E+00  0.000E+00  0.000E+00  1.85102E+00  1.000E+00  1.000E+00  4.545E-04  0.000E+00  0.000E+00
   1   12   12     2     4    1.0075E+00 -1.1851E-03   1.0087E+00  0.000E+00  0.000E+00  0.000E+00  1.78557E+00  1.000E+00  1.000E+00  9.759E-04  0.000E+00  0.000E+00
   1   12   13     2     5    1.0087E+00 -5.4040E-04   1.0092E+00  0.000E+00  0.000E+00  0.000E+00  1.72157E+00  1.000E+00  1.000E+00  4.227E-04  0.000E+00  0.000E+00
   1   13   13     2     6    1.0092E+00 -1.3542E-03   1.0106E+00  0.000E+00  0.000E+00  0.000E+00  1.65611E+00  1.000E+00  1.000E+00  1.008E-03  0.000E+00  0.000E+00
   1   13   14     2     7    1.0106E+00 -5.5037E-04   1.0111E+00  0.000E+00  0.000E+00  0.000E+00  1.59211E+00  1.000E+00  1.000E+00  3.909E-04  0.000E+00  0.000E+00
   1   14   14     2     8    1.0111E+00 -1.5314E-03   1.0127E+00  0.000E+00  0.000E+00  0.000E+00  1.52666E+00  1.000E+00  1.000E+00  1.039E-03  0.000E+00  0.000E+00
   1   14   15     2     9    1.0127E+00 -5.5211E-04   1.0132E+00  0.000E+00  0.000E+00  0.000E+00  1.46266E+00  1.000E+00  1.000E+00  3.591E-04  0.000E+00  0.000E+00
   1   15   15     2    10    1.0132E+00 -1.7169E-03   1.0149E+00  0.000E+00  0.000E+00  0.000E+00  1.39720E+00  1.000E+00  1.000E+00  1.071E-03  0.000E+00  0.000E+00
   1   15   16     2    11    1.0149E+00 -5.4562E-04   1.0155E+00  0.000E+00  0.000E+00  0.000E+00  1.33320E+00  1.000E+00  1.000E+00  3.274E-04  0.000E+00  0.000E+00
   1   16   16     2    12    1.0155E+00 -1.9107E-03   1.0174E+00  0.000E+00  0.000E+00  0.000E+00  1.26775E+00  1.000E+00  1.000E+00  1.103E-03  0.000E+00  0.000E+00
   1   16   17     2    13    1.0174E+00 -5.3090E-04   1.0179E+00  0.000E+00  0.000E+00  0.000E+00  1.20375E+00  1.000E+00  1.000E+00  2.956E-04  0.000E+00  0.000E+00
   1   17   17     2    14    1.0179E+00 -2.1127E-03   1.0200E+00  0.000E+00  0.000E+00  0.000E+00  1.13829E+00  1.000E+00  1.000E+00  1.135E-03  0.000E+00  0.000E+00
   1   17   18     2    15    1.0200E+00 -5.0796E-04   1.0205E+00  0.000E+00  0.000E+00  0.000E+00  1.07429E+00  1.000E+00  1.000E+00  2.638E-04  0.000E+00  0.000E+00
   1   18   18     2    16    1.0205E+00 -1.3386E-03   1.0219E+00  0.000E+00  0.000E+00  0.000E+00  1.03111E+00  1.000E+00  1.000E+00  6.799E-04  0.000E+00  0.000E+00



 UBDSV3 SAVING "           GW ET" ON UNIT   9 AT TIME STEP     5, STRESS PERIOD   2
 UBDSV3 SAVING "    UZF RECHARGE" ON UNIT   9 AT TIME STEP     5, STRESS PERIOD   2
 UBDSV3 SAVING " SURFACE LEAKAGE" ON UNIT   9 AT TIME STEP     5, STRESS PERIOD   2
 UBDSV3 SAVING "       HORT+DUNN" ON UNIT   9 AT TIME STEP     5, STRESS PERIOD   2
 UBDSV3 SAVING "  STORAGE CHANGE" ON UNIT   9 AT TIME STEP     5, STRESS PERIOD   2


UNSATURATED ZONE PACKAGE VOLUMETRIC BUDGET FOR  TIME STEP     5 STRESS PERIOD    2
  ------------------------------------------------------------------------------



     CUMULATIVE VOLUMES      L**3       RATES FOR THIS TIME STEP      L**3/T
     ------------------                 ------------------------

           IN:                                      IN:
           ---                                      ---
        INFILTRATION =       0.0000E+00          INFILTRATION =       0.0000E+00

          OUT:                                     OUT:
          ----                                     ----
              UZF ET =       0.0000E+00                UZF ET =       0.0000E+00
        UZF RECHARGE =       0.0000E+00          UZF RECHARGE =       0.0000E+00

            IN - OUT =       0.0000E+00              IN - OUT =       0.0000E+00

          STORAGE:                                 STORAGE:
          --------                                 --------
      STORAGE CHANGE =       0.0000E+00        STORAGE CHANGE =       0.0000E+00

 PERCENT DISCREPANCY IS DIFFERENCE BETWEEN IN-OUT MINUS CHANGE IN STORAGE
 DIVIDED BY THE AVERAGE OF IN AND OUT TIMES 100

 PERCENT DISCREPANCY =           0.00     PERCENT DISCREPANCY =           0.00







 HEAD WILL BE SAVED ON UNIT   37 AT END OF TIME STEP    5, STRESS PERIOD    2

 DRAWDOWN WILL BE SAVED ON UNIT   38 AT END OF TIME STEP    5, STRESS PERIOD    2
1
  VOLUMETRIC BUDGET FOR ENTIRE MODEL AT END OF TIME STEP    5, STRESS PERIOD   2
  ------------------------------------------------------------------------------

     CUMULATIVE VOLUMES      L**3       RATES FOR THIS TIME STEP      L**3/T
     ------------------                 ------------------------

           IN:                                      IN:
           ---                                      ---
             STORAGE =       1.1769E-06               STORAGE =           0.0000
       CONSTANT HEAD =           0.1903         CONSTANT HEAD =       2.1877E-02
      STREAM LEAKAGE =           0.0000        STREAM LEAKAGE =           0.0000
        UZF RECHARGE =           0.0000          UZF RECHARGE =           0.0000
               GW ET =           0.0000                 GW ET =           0.0000
     SURFACE LEAKAGE =           0.0000       SURFACE LEAKAGE =           0.0000

            TOTAL IN =           0.1903              TOTAL IN =       2.1877E-02

          OUT:                                     OUT:
          ----                                     ----
             STORAGE =       4.0603E-07               STORAGE =           0.0000
       CONSTANT HEAD =           0.0000         CONSTANT HEAD =           0.0000
      STREAM LEAKAGE =           0.1904        STREAM LEAKAGE =       2.1883E-02
        UZF RECHARGE =           0.0000          UZF RECHARGE =           0.0000
               GW ET =           0.0000                 GW ET =           0.0000
     SURFACE LEAKAGE =           0.0000       SURFACE LEAKAGE =           0.0000

           TOTAL OUT =           0.1904             TOTAL OUT =       2.1883E-02

            IN - OUT =      -5.5507E-05              IN - OUT =      -5.4929E-06

 PERCENT DISCREPANCY =          -0.03     PERCENT DISCREPANCY =          -0.03






         TIME SUMMARY AT END OF TIME STEP    5 IN STRESS PERIOD    2
                    SECONDS     MINUTES      HOURS       DAYS        YEARS
                    -----------------------------------------------------------
   TIME STEP LENGTH  2.4320     4.05327E-02 6.75545E-04 2.81477E-05 7.70643E-08
 STRESS PERIOD TIME  7.7002     0.12834     2.13894E-03 8.91225E-05 2.44004E-07
         TOTAL TIME  8.7002     0.14500     2.41672E-03 1.00697E-04 2.75692E-07
1
 
 SOLVING FOR HEAD 
     1 CALLS TO PCG ROUTINE FOR TIME STEP     6 IN STRESS PERIOD    2
     1 TOTAL ITERATIONS

 MAXIMUM HEAD CHANGE FOR EACH ITERATION (1 INDICATES THE FIRST INNER ITERATION):

    HEAD CHANGE    HEAD CHANGE    HEAD CHANGE    HEAD CHANGE    HEAD CHANGE 
   LAYER,ROW,COL  LAYER,ROW,COL  LAYER,ROW,COL  LAYER,ROW,COL  LAYER,ROW,COL
 ---------------------------------------------------------------------------
  1 -0.2531E-08
   (  2,  2, 16)

 MAXIMUM RESIDUAL FOR EACH ITERATION (1 INDICATES THE FIRST INNER ITERATION):

    RESIDUAL       RESIDUAL       RESIDUAL       RESIDUAL       RESIDUAL    
   LAYER,ROW,COL  LAYER,ROW,COL  LAYER,ROW,COL  LAYER,ROW,COL  LAYER,ROW,COL
 ---------------------------------------------------------------------------
  1 -0.1125E-04
   (  2,  2,  2)



 OUTPUT CONTROL FOR STRESS PERIOD    2   TIME STEP    6
    SAVE HEAD FOR ALL LAYERS
    SAVE DRAWDOWN FOR ALL LAYERS
    SAVE BUDGET
    PRINT BUDGET
 UBDSV1 SAVING "         STORAGE" ON UNIT   9 AT TIME STEP     6, STRESS PERIOD   2
 UBDSV2 SAVING "   CONSTANT HEAD" ON UNIT   9 AT TIME STEP     6, STRESS PERIOD   2
 UBDSV1 SAVING "FLOW RIGHT FACE " ON UNIT   9 AT TIME STEP     6, STRESS PERIOD   2
 UBDSV1 SAVING "FLOW FRONT FACE " ON UNIT   9 AT TIME STEP     6, STRESS PERIOD   2
 UBDSV1 SAVING "FLOW LOWER FACE " ON UNIT   9 AT TIME STEP     6, STRESS PERIOD   2
 UBDSV4 SAVING "  STREAM LEAKAGE" ON UNIT   9 AT TIME STEP     6, STRESS PERIOD   2



 STREAM LISTING     PERIOD      2   STEP        6

 LAYER ROW COL. STREAM  RCH.   FLOW INTO    STREAM     FLOW OUT OF   OVRLND.    DIRECT     STREAM      STREAM      STREAM     STREAM  STREAMBED   FLOW TO   CHNG. UNSAT. 
                SEG.NO.  NO.   STRM. RCH.    LOSS       STRM. RCH.   RUNOFF     PRECIP       ET         HEAD        DEPTH      WIDTH  CONDCTNC.   WAT. TAB.

   1    2    2     1     1    1.0000E+00 -8.9848E-06   1.0000E+00  0.000E+00  0.000E+00  0.000E+00  2.97978E+00  1.000E+00  1.000E+00  4.444E-04  0.000E+00  0.000E+00
   1    2    3     1     2    1.0000E+00 -3.0181E-05   1.0000E+00  0.000E+00  0.000E+00  0.000E+00  2.93755E+00  1.000E+00  1.000E+00  4.834E-04  0.000E+00  0.000E+00
   1    3    3     1     3    1.0000E+00 -1.1937E-04   1.0002E+00  0.000E+00  0.000E+00  0.000E+00  2.87283E+00  1.000E+00  1.000E+00  9.388E-04  0.000E+00  0.000E+00
   1    3    4     1     4    1.0002E+00 -8.9380E-05   1.0002E+00  0.000E+00  0.000E+00  0.000E+00  2.80883E+00  1.000E+00  1.000E+00  4.676E-04  0.000E+00  0.000E+00
   1    4    4     1     5    1.0002E+00 -2.4425E-04   1.0005E+00  0.000E+00  0.000E+00  0.000E+00  2.74411E+00  1.000E+00  1.000E+00  9.546E-04  0.000E+00  0.000E+00
   1    4    5     1     6    1.0005E+00 -1.4451E-04   1.0006E+00  0.000E+00  0.000E+00  0.000E+00  2.68011E+00  1.000E+00  1.000E+00  4.518E-04  0.000E+00  0.000E+00
   1    5    5     1     7    1.0006E+00 -3.7320E-04   1.0010E+00  0.000E+00  0.000E+00  0.000E+00  2.61540E+00  1.000E+00  1.000E+00  9.704E-04  0.000E+00  0.000E+00
   1    5    6     1     8    1.0010E+00 -1.9558E-04   1.0012E+00  0.000E+00  0.000E+00  0.000E+00  2.55140E+00  1.000E+00  1.000E+00  4.360E-04  0.000E+00  0.000E+00
   1    6    6     1     9    1.0012E+00 -5.0622E-04   1.0017E+00  0.000E+00  0.000E+00  0.000E+00  2.48668E+00  1.000E+00  1.000E+00  9.862E-04  0.000E+00  0.000E+00
   1    6    7     1    10    1.0017E+00 -2.4257E-04   1.0020E+00  0.000E+00  0.000E+00  0.000E+00  2.42268E+00  1.000E+00  1.000E+00  4.202E-04  0.000E+00  0.000E+00
   1    7    7     1    11    1.0020E+00 -6.4331E-04   1.0026E+00  0.000E+00  0.000E+00  0.000E+00  2.35796E+00  1.000E+00  1.000E+00  1.002E-03  0.000E+00  0.000E+00
   1    7    8     1    12    1.0026E+00 -2.8550E-04   1.0029E+00  0.000E+00  0.000E+00  0.000E+00  2.29396E+00  1.000E+00  1.000E+00  4.044E-04  0.000E+00  0.000E+00
   1    8    8     1    13    1.0029E+00 -7.8446E-04   1.0037E+00  0.000E+00  0.000E+00  0.000E+00  2.22924E+00  1.000E+00  1.000E+00  1.018E-03  0.000E+00  0.000E+00
   1    8    9     1    14    1.0037E+00 -3.2436E-04   1.0040E+00  0.000E+00  0.000E+00  0.000E+00  2.16524E+00  1.000E+00  1.000E+00  3.886E-04  0.000E+00  0.000E+00
   1    9    9     1    15    1.0040E+00 -9.2969E-04   1.0049E+00  0.000E+00  0.000E+00  0.000E+00  2.10052E+00  1.000E+00  1.000E+00  1.034E-03  0.000E+00  0.000E+00
   1    9   10     1    16    1.0049E+00 -3.5915E-04   1.0053E+00  0.000E+00  0.000E+00  0.000E+00  2.03652E+00  1.000E+00  1.000E+00  3.728E-04  0.000E+00  0.000E+00
   1   10   10     1    17    1.0053E+00 -2.1276E-04   1.0055E+00  0.000E+00  0.000E+00  0.000E+00  2.00978E+00  1.000E+00  1.000E+00  2.149E-04  0.000E+00  0.000E+00
   1   10   11     2     1    1.0055E+00 -4.6601E-04   1.0060E+00  0.000E+00  0.000E+00  0.000E+00  1.97911E+00  1.000E+00  1.000E+00  4.565E-04  0.000E+00  0.000E+00
   1   11   11     2     2    1.0060E+00 -1.0243E-03   1.0070E+00  0.000E+00  0.000E+00  0.000E+00  1.91502E+00  1.000E+00  1.000E+00  9.441E-04  0.000E+00  0.000E+00
   1   11   12     2     3    1.0070E+00 -5.2220E-04   1.0075E+00  0.000E+00  0.000E+00  0.000E+00  1.85102E+00  1.000E+00  1.000E+00  4.545E-04  0.000E+00  0.000E+00
   1   12   12     2     4    1.0075E+00 -1.1851E-03   1.0087E+00  0.000E+00  0.000E+00  0.000E+00  1.78557E+00  1.000E+00  1.000E+00  9.759E-04  0.000E+00  0.000E+00
   1   12   13     2     5    1.0087E+00 -5.4040E-04   1.0092E+00  0.000E+00  0.000E+00  0.000E+00  1.72157E+00  1.000E+00  1.000E+00  4.227E-04  0.000E+00  0.000E+00
   1   13   13     2     6    1.0092E+00 -1.3542E-03   1.0106E+00  0.000E+00  0.000E+00  0.000E+00  1.65611E+00  1.000E+00  1.000E+00  1.008E-03  0.000E+00  0.000E+00
   1   13   14     2     7    1.0106E+00 -5.5037E-04   1.0111E+00  0.000E+00  0.000E+00  0.000E+00  1.59211E+00  1.000E+00  1.000E+00  3.909E-04  0.000E+00  0.000E+00
   1   14   14     2     8    1.0111E+00 -1.5314E-03   1.0127E+00  0.000E+00  0.000E+00  0.000E+00  1.52666E+00  1.000E+00  1.000E+00  1.039E-03  0.000E+00  0.000E+00
   1   14   15     2     9    1.0127E+00 -5.5211E-04   1.0132E+00  0.000E+00  0.000E+00  0.000E+00  1.46266E+00  1.000E+00  1.000E+00  3.591E-04  0.000E+00  0.000E+00
   1   15   15     2    10    1.0132E+00 -1.7169E-03   1.0149E+00  0.000E+00  0.000E+00  0.000E+00  1.39720E+00  1.000E+00  1.000E+00  1.071E-03  0.000E+00  0.000E+00
   1   15   16     2    11    1.0149E+00 -5.4562E-04   1.0155E+00  0.000E+00  0.000E+00  0.000E+00  1.33320E+00  1.000E+00  1.000E+00  3.274E-04  0.000E+00  0.000E+00
   1   16   16     2    12    1.0155E+00 -1.9107E-03   1.0174E+00  0.000E+00  0.000E+00  0.000E+00  1.26775E+00  1.000E+00  1.000E+00  1.103E-03  0.000E+00  0.000E+00
   1   16   17     2    13    1.0174E+00 -5.3090E-04   1.0179E+00  0.000E+00  0.000E+00  0.000E+00  1.20375E+00  1.000E+00  1.000E+00  2.956E-04  0.000E+00  0.000E+00
   1   17   17     2    14    1.0179E+00 -2.1127E-03   1.0200E+00  0.000E+00  0.000E+00  0.000E+00  1.13829E+00  1.000E+00  1.000E+00  1.135E-03  0.000E+00  0.000E+00
   1   17   18     2    15    1.0200E+00 -5.0796E-04   1.0205E+00  0.000E+00  0.000E+00  0.000E+00  1.07429E+00  1.000E+00  1.000E+00  2.638E-04  0.000E+00  0.000E+00
   1   18   18     2    16    1.0205E+00 -1.3386E-03   1.0219E+00  0.000E+00  0.000E+00  0.000E+00  1.03111E+00  1.000E+00  1.000E+00  6.799E-04  0.000E+00  0.000E+00



 UBDSV3 SAVING "           GW ET" ON UNIT   9 AT TIME STEP     6, STRESS PERIOD   2
 UBDSV3 SAVING "    UZF RECHARGE" ON UNIT   9 AT TIME STEP     6, STRESS PERIOD   2
 UBDSV3 SAVING " SURFACE LEAKAGE" ON UNIT   9 AT TIME STEP     6, STRESS PERIOD   2
 UBDSV3 SAVING "       HORT+DUNN" ON UNIT   9 AT TIME STEP     6, STRESS PERIOD   2
 UBDSV3 SAVING "  STORAGE CHANGE" ON UNIT   9 AT TIME STEP     6, STRESS PERIOD   2


UNSATURATED ZONE PACKAGE VOLUMETRIC BUDGET FOR  TIME STEP     6 STRESS PERIOD    2
  ------------------------------------------------------------------------------



     CUMULATIVE VOLUMES      L**3       RATES FOR THIS TIME STEP      L**3/T
     ------------------                 ------------------------

           IN:                                      IN:
           ---                                      ---
        INFILTRATION =       0.0000E+00          INFILTRATION =       0.0000E+00

          OUT:                                     OUT:
          ----                                     ----
              UZF ET =       0.0000E+00                UZF ET =       0.0000E+00
        UZF RECHARGE =       0.0000E+00          UZF RECHARGE =       0.0000E+00

            IN - OUT =       0.0000E+00              IN - OUT =       0.0000E+00

          STORAGE:                                 STORAGE:
          --------                                 --------
      STORAGE CHANGE =       0.0000E+00        STORAGE CHANGE =       0.0000E+00

 PERCENT DISCREPANCY IS DIFFERENCE BETWEEN IN-OUT MINUS CHANGE IN STORAGE
 DIVIDED BY THE AVERAGE OF IN AND OUT TIMES 100

 PERCENT DISCREPANCY =           0.00     PERCENT DISCREPANCY =           0.00







 HEAD WILL BE SAVED ON UNIT   37 AT END OF TIME STEP    6, STRESS PERIOD    2

 DRAWDOWN WILL BE SAVED ON UNIT   38 AT END OF TIME STEP    6, STRESS PERIOD    2
1
  VOLUMETRIC BUDGET FOR ENTIRE MODEL AT END OF TIME STEP    6, STRESS PERIOD   2
  ------------------------------------------------------------------------------

     CUMULATIVE VOLUMES      L**3       RATES FOR THIS TIME STEP      L**3/T
     ------------------                 ------------------------

           IN:                                      IN:
           ---                                      ---
             STORAGE =       1.5538E-06               STORAGE =       1.1921E-07
       CONSTANT HEAD =           0.2595         CONSTANT HEAD =       2.1878E-02
      STREAM LEAKAGE =           0.0000        STREAM LEAKAGE =           0.0000
        UZF RECHARGE =           0.0000          UZF RECHARGE =           0.0000
               GW ET =           0.0000                 GW ET =           0.0000
     SURFACE LEAKAGE =           0.0000       SURFACE LEAKAGE =           0.0000

            TOTAL IN =           0.2595              TOTAL IN =       2.1878E-02

          OUT:                                     OUT:
          ----                                     ----
             STORAGE =       4.0603E-07               STORAGE =           0.0000
       CONSTANT HEAD =           0.0000         CONSTANT HEAD =           0.0000
      STREAM LEAKAGE =           0.2596        STREAM LEAKAGE =       2.1883E-02
        UZF RECHARGE =           0.0000          UZF RECHARGE =           0.0000
               GW ET =           0.0000                 GW ET =           0.0000
     SURFACE LEAKAGE =           0.0000       SURFACE LEAKAGE =           0.0000

           TOTAL OUT =           0.2596             TOTAL OUT =       2.1883E-02

            IN - OUT =      -7.1377E-05              IN - OUT =      -5.0198E-06

 PERCENT DISCREPANCY =          -0.03     PERCENT DISCREPANCY =          -0.02






         TIME SUMMARY AT END OF TIME STEP    6 IN STRESS PERIOD    2
                    SECONDS     MINUTES      HOURS       DAYS        YEARS
                    -----------------------------------------------------------
   TIME STEP LENGTH  3.1616     5.26925E-02 8.78209E-04 3.65920E-05 1.00184E-07
 STRESS PERIOD TIME  10.862     0.18103     3.01715E-03 1.25714E-04 3.44188E-07
         TOTAL TIME  11.862     0.19770     3.29493E-03 1.37289E-04 3.75876E-07
1
 
 SOLVING FOR HEAD 
     1 CALLS TO PCG ROUTINE FOR TIME STEP     7 IN STRESS PERIOD    2
     1 TOTAL ITERATIONS

 MAXIMUM HEAD CHANGE FOR EACH ITERATION (1 INDICATES THE FIRST INNER ITERATION):

    HEAD CHANGE    HEAD CHANGE    HEAD CHANGE    HEAD CHANGE    HEAD CHANGE 
   LAYER,ROW,COL  LAYER,ROW,COL  LAYER,ROW,COL  LAYER,ROW,COL  LAYER,ROW,COL
 ---------------------------------------------------------------------------
  1  0.2784E-08
   (  1,  1, 20)

 MAXIMUM RESIDUAL FOR EACH ITERATION (1 INDICATES THE FIRST INNER ITERATION):

    RESIDUAL       RESIDUAL       RESIDUAL       RESIDUAL       RESIDUAL    
   LAYER,ROW,COL  LAYER,ROW,COL  LAYER,ROW,COL  LAYER,ROW,COL  LAYER,ROW,COL
 ---------------------------------------------------------------------------
  1 -0.1022E-04
   (  2,  2,  2)



 OUTPUT CONTROL FOR STRESS PERIOD    2   TIME STEP    7
    SAVE HEAD FOR ALL LAYERS
    SAVE DRAWDOWN FOR ALL LAYERS
    SAVE BUDGET
    PRINT BUDGET
 UBDSV1 SAVING "         STORAGE" ON UNIT   9 AT TIME STEP     7, STRESS PERIOD   2
 UBDSV2 SAVING "   CONSTANT HEAD" ON UNIT   9 AT TIME STEP     7, STRESS PERIOD   2
 UBDSV1 SAVING "FLOW RIGHT FACE " ON UNIT   9 AT TIME STEP     7, STRESS PERIOD   2
 UBDSV1 SAVING "FLOW FRONT FACE " ON UNIT   9 AT TIME STEP     7, STRESS PERIOD   2
 UBDSV1 SAVING "FLOW LOWER FACE " ON UNIT   9 AT TIME STEP     7, STRESS PERIOD   2
 UBDSV4 SAVING "  STREAM LEAKAGE" ON UNIT   9 AT TIME STEP     7, STRESS PERIOD   2



 STREAM LISTING     PERIOD      2   STEP        7

 LAYER ROW COL. STREAM  RCH.   FLOW INTO    STREAM     FLOW OUT OF   OVRLND.    DIRECT     STREAM      STREAM      STREAM     STREAM  STREAMBED   FLOW TO   CHNG. UNSAT. 
                SEG.NO.  NO.   STRM. RCH.    LOSS       STRM. RCH.   RUNOFF     PRECIP       ET         HEAD        DEPTH      WIDTH  CONDCTNC.   WAT. TAB.

   1    2    2     1     1    1.0000E+00 -8.9848E-06   1.0000E+00  0.000E+00  0.000E+00  0.000E+00  2.97978E+00  1.000E+00  1.000E+00  4.444E-04  0.000E+00  0.000E+00
   1    2    3     1     2    1.0000E+00 -3.0181E-05   1.0000E+00  0.000E+00  0.000E+00  0.000E+00  2.93755E+00  1.000E+00  1.000E+00  4.834E-04  0.000E+00  0.000E+00
   1    3    3     1     3    1.0000E+00 -1.1937E-04   1.0002E+00  0.000E+00  0.000E+00  0.000E+00  2.87283E+00  1.000E+00  1.000E+00  9.388E-04  0.000E+00  0.000E+00
   1    3    4     1     4    1.0002E+00 -8.9380E-05   1.0002E+00  0.000E+00  0.000E+00  0.000E+00  2.80883E+00  1.000E+00  1.000E+00  4.676E-04  0.000E+00  0.000E+00
   1    4    4     1     5    1.0002E+00 -2.4425E-04   1.0005E+00  0.000E+00  0.000E+00  0.000E+00  2.74411E+00  1.000E+00  1.000E+00  9.546E-04  0.000E+00  0.000E+00
   1    4    5     1     6    1.0005E+00 -1.4451E-04   1.0006E+00  0.000E+00  0.000E+00  0.000E+00  2.68011E+00  1.000E+00  1.000E+00  4.518E-04  0.000E+00  0.000E+00
   1    5    5     1     7    1.0006E+00 -3.7320E-04   1.0010E+00  0.000E+00  0.000E+00  0.000E+00  2.61540E+00  1.000E+00  1.000E+00  9.704E-04  0.000E+00  0.000E+00
   1    5    6     1     8    1.0010E+00 -1.9558E-04   1.0012E+00  0.000E+00  0.000E+00  0.000E+00  2.55140E+00  1.000E+00  1.000E+00  4.360E-04  0.000E+00  0.000E+00
   1    6    6     1     9    1.0012E+00 -5.0622E-04   1.0017E+00  0.000E+00  0.000E+00  0.000E+00  2.48668E+00  1.000E+00  1.000E+00  9.862E-04  0.000E+00  0.000E+00
   1    6    7     1    10    1.0017E+00 -2.4257E-04   1.0020E+00  0.000E+00  0.000E+00  0.000E+00  2.42268E+00  1.000E+00  1.000E+00  4.202E-04  0.000E+00  0.000E+00
   1    7    7     1    11    1.0020E+00 -6.4331E-04   1.0026E+00  0.000E+00  0.000E+00  0.000E+00  2.35796E+00  1.000E+00  1.000E+00  1.002E-03  0.000E+00  0.000E+00
   1    7    8     1    12    1.0026E+00 -2.8550E-04   1.0029E+00  0.000E+00  0.000E+00  0.000E+00  2.29396E+00  1.000E+00  1.000E+00  4.044E-04  0.000E+00  0.000E+00
   1    8    8     1    13    1.0029E+00 -7.8446E-04   1.0037E+00  0.000E+00  0.000E+00  0.000E+00  2.22924E+00  1.000E+00  1.000E+00  1.018E-03  0.000E+00  0.000E+00
   1    8    9     1    14    1.0037E+00 -3.2436E-04   1.0040E+00  0.000E+00  0.000E+00  0.000E+00  2.16524E+00  1.000E+00  1.000E+00  3.886E-04  0.000E+00  0.000E+00
   1    9    9     1    15    1.0040E+00 -9.2969E-04   1.0049E+00  0.000E+00  0.000E+00  0.000E+00  2.10052E+00  1.000E+00  1.000E+00  1.034E-03  0.000E+00  0.000E+00
   1    9   10     1    16    1.0049E+00 -3.5915E-04   1.0053E+00  0.000E+00  0.000E+00  0.000E+00  2.03652E+00  1.000E+00  1.000E+00  3.728E-04  0.000E+00  0.000E+00
   1   10   10     1    17    1.0053E+00 -2.1276E-04   1.0055E+00  0.000E+00  0.000E+00  0.000E+00  2.00978E+00  1.000E+00  1.000E+00  2.149E-04  0.000E+00  0.000E+00
   1   10   11     2     1    1.0055E+00 -4.6601E-04   1.0060E+00  0.000E+00  0.000E+00  0.000E+00  1.97911E+00  1.000E+00  1.000E+00  4.565E-04  0.000E+00  0.000E+00
   1   11   11     2     2    1.0060E+00 -1.0243E-03   1.0070E+00  0.000E+00  0.000E+00  0.000E+00  1.91502E+00  1.000E+00  1.000E+00  9.441E-04  0.000E+00  0.000E+00
   1   11   12     2     3    1.0070E+00 -5.2220E-04   1.0075E+00  0.000E+00  0.000E+00  0.000E+00  1.85102E+00  1.000E+00  1.000E+00  4.545E-04  0.000E+00  0.000E+00
   1   12   12     2     4    1.0075E+00 -1.1851E-03   1.0087E+00  0.000E+00  0.000E+00  0.000E+00  1.78557E+00  1.000E+00  1.000E+00  9.759E-04  0.000E+00  0.000E+00
   1   12   13     2     5    1.0087E+00 -5.4040E-04   1.0092E+00  0.000E+00  0.000E+00  0.000E+00  1.72157E+00  1.000E+00  1.000E+00  4.227E-04  0.000E+00  0.000E+00
   1   13   13     2     6    1.0092E+00 -1.3542E-03   1.0106E+00  0.000E+00  0.000E+00  0.000E+00  1.65611E+00  1.000E+00  1.000E+00  1.008E-03  0.000E+00  0.000E+00
   1   13   14     2     7    1.0106E+00 -5.5037E-04   1.0111E+00  0.000E+00  0.000E+00  0.000E+00  1.59211E+00  1.000E+00  1.000E+00  3.909E-04  0.000E+00  0.000E+00
   1   14   14     2     8    1.0111E+00 -1.5314E-03   1.0127E+00  0.000E+00  0.000E+00  0.000E+00  1.52666E+00  1.000E+00  1.000E+00  1.039E-03  0.000E+00  0.000E+00
   1   14   15     2     9    1.0127E+00 -5.5211E-04   1.0132E+00  0.000E+00  0.000E+00  0.000E+00  1.46266E+00  1.000E+00  1.000E+00  3.591E-04  0.000E+00  0.000E+00
   1   15   15     2    10    1.0132E+00 -1.7169E-03   1.0149E+00  0.000E+00  0.000E+00  0.000E+00  1.39720E+00  1.000E+00  1.000E+00  1.071E-03  0.000E+00  0.000E+00
   1   15   16     2    11    1.0149E+00 -5.4562E-04   1.0155E+00  0.000E+00  0.000E+00  0.000E+00  1.33320E+00  1.000E+00  1.000E+00  3.274E-04  0.000E+00  0.000E+00
   1   16   16     2    12    1.0155E+00 -1.9107E-03   1.0174E+00  0.000E+00  0.000E+00  0.000E+00  1.26775E+00  1.000E+00  1.000E+00  1.103E-03  0.000E+00  0.000E+00
   1   16   17     2    13    1.0174E+00 -5.3090E-04   1.0179E+00  0.000E+00  0.000E+00  0.000E+00  1.20375E+00  1.000E+00  1.000E+00  2.956E-04  0.000E+00  0.000E+00
   1   17   17     2    14    1.0179E+00 -2.1127E-03   1.0200E+00  0.000E+00  0.000E+00  0.000E+00  1.13829E+00  1.000E+00  1.000E+00  1.135E-03  0.000E+00  0.000E+00
   1   17   18     2    15    1.0200E+00 -5.0796E-04   1.0205E+00  0.000E+00  0.000E+00  0.000E+00  1.07429E+00  1.000E+00  1.000E+00  2.638E-04  0.000E+00  0.000E+00
   1   18   18     2    16    1.0205E+00 -1.3386E-03   1.0219E+00  0.000E+00  0.000E+00  0.000E+00  1.03111E+00  1.000E+00  1.000E+00  6.799E-04  0.000E+00  0.000E+00



 UBDSV3 SAVING "           GW ET" ON UNIT   9 AT TIME STEP     7, STRESS PERIOD   2
 UBDSV3 SAVING "    UZF RECHARGE" ON UNIT   9 AT TIME STEP     7, STRESS PERIOD   2
 UBDSV3 SAVING " SURFACE LEAKAGE" ON UNIT   9 AT TIME STEP     7, STRESS PERIOD   2
 UBDSV3 SAVING "       HORT+DUNN" ON UNIT   9 AT TIME STEP     7, STRESS PERIOD   2
 UBDSV3 SAVING "  STORAGE CHANGE" ON UNIT   9 AT TIME STEP     7, STRESS PERIOD   2


UNSATURATED ZONE PACKAGE VOLUMETRIC BUDGET FOR  TIME STEP     7 STRESS PERIOD    2
  ------------------------------------------------------------------------------



     CUMULATIVE VOLUMES      L**3       RATES FOR THIS TIME STEP      L**3/T
     ------------------                 ------------------------

           IN:                                      IN:
           ---                                      ---
        INFILTRATION =       0.0000E+00          INFILTRATION =       0.0000E+00

          OUT:                                     OUT:
          ----                                     ----
              UZF ET =       0.0000E+00                UZF ET =       0.0000E+00
        UZF RECHARGE =       0.0000E+00          UZF RECHARGE =       0.0000E+00

            IN - OUT =       0.0000E+00              IN - OUT =       0.0000E+00

          STORAGE:                                 STORAGE:
          --------                                 --------
      STORAGE CHANGE =       0.0000E+00        STORAGE CHANGE =       0.0000E+00

 PERCENT DISCREPANCY IS DIFFERENCE BETWEEN IN-OUT MINUS CHANGE IN STORAGE
 DIVIDED BY THE AVERAGE OF IN AND OUT TIMES 100

 PERCENT DISCREPANCY =           0.00     PERCENT DISCREPANCY =           0.00







 HEAD WILL BE SAVED ON UNIT   37 AT END OF TIME STEP    7, STRESS PERIOD    2

 DRAWDOWN WILL BE SAVED ON UNIT   38 AT END OF TIME STEP    7, STRESS PERIOD    2
1
  VOLUMETRIC BUDGET FOR ENTIRE MODEL AT END OF TIME STEP    7, STRESS PERIOD   2
  ------------------------------------------------------------------------------

     CUMULATIVE VOLUMES      L**3       RATES FOR THIS TIME STEP      L**3/T
     ------------------                 ------------------------

           IN:                                      IN:
           ---                                      ---
             STORAGE =       1.5538E-06               STORAGE =           0.0000
       CONSTANT HEAD =           0.3494         CONSTANT HEAD =       2.1878E-02
      STREAM LEAKAGE =           0.0000        STREAM LEAKAGE =           0.0000
        UZF RECHARGE =           0.0000          UZF RECHARGE =           0.0000
               GW ET =           0.0000                 GW ET =           0.0000
     SURFACE LEAKAGE =           0.0000       SURFACE LEAKAGE =           0.0000

            TOTAL IN =           0.3494              TOTAL IN =       2.1878E-02

          OUT:                                     OUT:
          ----                                     ----
             STORAGE =       8.9598E-07               STORAGE =       1.1921E-07
       CONSTANT HEAD =           0.0000         CONSTANT HEAD =           0.0000
      STREAM LEAKAGE =           0.3495        STREAM LEAKAGE =       2.1883E-02
        UZF RECHARGE =           0.0000          UZF RECHARGE =           0.0000
               GW ET =           0.0000                 GW ET =           0.0000
     SURFACE LEAKAGE =           0.0000       SURFACE LEAKAGE =           0.0000

           TOTAL OUT =           0.3495             TOTAL OUT =       2.1883E-02

            IN - OUT =      -9.2208E-05              IN - OUT =      -5.0738E-06

 PERCENT DISCREPANCY =          -0.03     PERCENT DISCREPANCY =          -0.02






         TIME SUMMARY AT END OF TIME STEP    7 IN STRESS PERIOD    2
                    SECONDS     MINUTES      HOURS       DAYS        YEARS
                    -----------------------------------------------------------
   TIME STEP LENGTH  4.1100     6.85003E-02 1.14167E-03 4.75696E-05 1.30239E-07
 STRESS PERIOD TIME  14.972     0.24953     4.15882E-03 1.73284E-04 4.74426E-07
         TOTAL TIME  15.972     0.26620     4.43660E-03 1.84858E-04 5.06114E-07
1
 
 SOLVING FOR HEAD 
     1 CALLS TO PCG ROUTINE FOR TIME STEP     8 IN STRESS PERIOD    2
     1 TOTAL ITERATIONS

 MAXIMUM HEAD CHANGE FOR EACH ITERATION (1 INDICATES THE FIRST INNER ITERATION):

    HEAD CHANGE    HEAD CHANGE    HEAD CHANGE    HEAD CHANGE    HEAD CHANGE 
   LAYER,ROW,COL  LAYER,ROW,COL  LAYER,ROW,COL  LAYER,ROW,COL  LAYER,ROW,COL
 ---------------------------------------------------------------------------
  1 -0.2713E-08
   (  2,  1, 20)

 MAXIMUM RESIDUAL FOR EACH ITERATION (1 INDICATES THE FIRST INNER ITERATION):

    RESIDUAL       RESIDUAL       RESIDUAL       RESIDUAL       RESIDUAL    
   LAYER,ROW,COL  LAYER,ROW,COL  LAYER,ROW,COL  LAYER,ROW,COL  LAYER,ROW,COL
 ---------------------------------------------------------------------------
  1 -0.9357E-05
   (  2,  2,  2)



 OUTPUT CONTROL FOR STRESS PERIOD    2   TIME STEP    8
    SAVE HEAD FOR ALL LAYERS
    SAVE DRAWDOWN FOR ALL LAYERS
    SAVE BUDGET
    PRINT BUDGET
 UBDSV1 SAVING "         STORAGE" ON UNIT   9 AT TIME STEP     8, STRESS PERIOD   2
 UBDSV2 SAVING "   CONSTANT HEAD" ON UNIT   9 AT TIME STEP     8, STRESS PERIOD   2
 UBDSV1 SAVING "FLOW RIGHT FACE " ON UNIT   9 AT TIME STEP     8, STRESS PERIOD   2
 UBDSV1 SAVING "FLOW FRONT FACE " ON UNIT   9 AT TIME STEP     8, STRESS PERIOD   2
 UBDSV1 SAVING "FLOW LOWER FACE " ON UNIT   9 AT TIME STEP     8, STRESS PERIOD   2
 UBDSV4 SAVING "  STREAM LEAKAGE" ON UNIT   9 AT TIME STEP     8, STRESS PERIOD   2



 STREAM LISTING     PERIOD      2   STEP        8

 LAYER ROW COL. STREAM  RCH.   FLOW INTO    STREAM     FLOW OUT OF   OVRLND.    DIRECT     STREAM      STREAM      STREAM     STREAM  STREAMBED   FLOW TO   CHNG. UNSAT. 
                SEG.NO.  NO.   STRM. RCH.    LOSS       STRM. RCH.   RUNOFF     PRECIP       ET         HEAD        DEPTH      WIDTH  CONDCTNC.   WAT. TAB.

   1    2    2     1     1    1.0000E+00 -8.9848E-06   1.0000E+00  0.000E+00  0.000E+00  0.000E+00  2.97978E+00  1.000E+00  1.000E+00  4.444E-04  0.000E+00  0.000E+00
   1    2    3     1     2    1.0000E+00 -3.0181E-05   1.0000E+00  0.000E+00  0.000E+00  0.000E+00  2.93755E+00  1.000E+00  1.000E+00  4.834E-04  0.000E+00  0.000E+00
   1    3    3     1     3    1.0000E+00 -1.1937E-04   1.0002E+00  0.000E+00  0.000E+00  0.000E+00  2.87283E+00  1.000E+00  1.000E+00  9.388E-04  0.000E+00  0.000E+00
   1    3    4     1     4    1.0002E+00 -8.9380E-05   1.0002E+00  0.000E+00  0.000E+00  0.000E+00  2.80883E+00  1.000E+00  1.000E+00  4.676E-04  0.000E+00  0.000E+00
   1    4    4     1     5    1.0002E+00 -2.4425E-04   1.0005E+00  0.000E+00  0.000E+00  0.000E+00  2.74411E+00  1.000E+00  1.000E+00  9.546E-04  0.000E+00  0.000E+00
   1    4    5     1     6    1.0005E+00 -1.4451E-04   1.0006E+00  0.000E+00  0.000E+00  0.000E+00  2.68011E+00  1.000E+00  1.000E+00  4.518E-04  0.000E+00  0.000E+00
   1    5    5     1     7    1.0006E+00 -3.7320E-04   1.0010E+00  0.000E+00  0.000E+00  0.000E+00  2.61540E+00  1.000E+00  1.000E+00  9.704E-04  0.000E+00  0.000E+00
   1    5    6     1     8    1.0010E+00 -1.9558E-04   1.0012E+00  0.000E+00  0.000E+00  0.000E+00  2.55140E+00  1.000E+00  1.000E+00  4.360E-04  0.000E+00  0.000E+00
   1    6    6     1     9    1.0012E+00 -5.0622E-04   1.0017E+00  0.000E+00  0.000E+00  0.000E+00  2.48668E+00  1.000E+00  1.000E+00  9.862E-04  0.000E+00  0.000E+00
   1    6    7     1    10    1.0017E+00 -2.4257E-04   1.0020E+00  0.000E+00  0.000E+00  0.000E+00  2.42268E+00  1.000E+00  1.000E+00  4.202E-04  0.000E+00  0.000E+00
   1    7    7     1    11    1.0020E+00 -6.4331E-04   1.0026E+00  0.000E+00  0.000E+00  0.000E+00  2.35796E+00  1.000E+00  1.000E+00  1.002E-03  0.000E+00  0.000E+00
   1    7    8     1    12    1.0026E+00 -2.8550E-04   1.0029E+00  0.000E+00  0.000E+00  0.000E+00  2.29396E+00  1.000E+00  1.000E+00  4.044E-04  0.000E+00  0.000E+00
   1    8    8     1    13    1.0029E+00 -7.8446E-04   1.0037E+00  0.000E+00  0.000E+00  0.000E+00  2.22924E+00  1.000E+00  1.000E+00  1.018E-03  0.000E+00  0.000E+00
   1    8    9     1    14    1.0037E+00 -3.2436E-04   1.0040E+00  0.000E+00  0.000E+00  0.000E+00  2.16524E+00  1.000E+00  1.000E+00  3.886E-04  0.000E+00  0.000E+00
   1    9    9     1    15    1.0040E+00 -9.2969E-04   1.0049E+00  0.000E+00  0.000E+00  0.000E+00  2.10052E+00  1.000E+00  1.000E+00  1.034E-03  0.000E+00  0.000E+00
   1    9   10     1    16    1.0049E+00 -3.5915E-04   1.0053E+00  0.000E+00  0.000E+00  0.000E+00  2.03652E+00  1.000E+00  1.000E+00  3.728E-04  0.000E+00  0.000E+00
   1   10   10     1    17    1.0053E+00 -2.1276E-04   1.0055E+00  0.000E+00  0.000E+00  0.000E+00  2.00978E+00  1.000E+00  1.000E+00  2.149E-04  0.000E+00  0.000E+00
   1   10   11     2     1    1.0055E+00 -4.6601E-04   1.0060E+00  0.000E+00  0.000E+00  0.000E+00  1.97911E+00  1.000E+00  1.000E+00  4.565E-04  0.000E+00  0.000E+00
   1   11   11     2     2    1.0060E+00 -1.0243E-03   1.0070E+00  0.000E+00  0.000E+00  0.000E+00  1.91502E+00  1.000E+00  1.000E+00  9.441E-04  0.000E+00  0.000E+00
   1   11   12     2     3    1.0070E+00 -5.2220E-04   1.0075E+00  0.000E+00  0.000E+00  0.000E+00  1.85102E+00  1.000E+00  1.000E+00  4.545E-04  0.000E+00  0.000E+00
   1   12   12     2     4    1.0075E+00 -1.1851E-03   1.0087E+00  0.000E+00  0.000E+00  0.000E+00  1.78557E+00  1.000E+00  1.000E+00  9.759E-04  0.000E+00  0.000E+00
   1   12   13     2     5    1.0087E+00 -5.4040E-04   1.0092E+00  0.000E+00  0.000E+00  0.000E+00  1.72157E+00  1.000E+00  1.000E+00  4.227E-04  0.000E+00  0.000E+00
   1   13   13     2     6    1.0092E+00 -1.3542E-03   1.0106E+00  0.000E+00  0.000E+00  0.000E+00  1.65611E+00  1.000E+00  1.000E+00  1.008E-03  0.000E+00  0.000E+00
   1   13   14     2     7    1.0106E+00 -5.5037E-04   1.0111E+00  0.000E+00  0.000E+00  0.000E+00  1.59211E+00  1.000E+00  1.000E+00  3.909E-04  0.000E+00  0.000E+00
   1   14   14     2     8    1.0111E+00 -1.5314E-03   1.0127E+00  0.000E+00  0.000E+00  0.000E+00  1.52666E+00  1.000E+00  1.000E+00  1.039E-03  0.000E+00  0.000E+00
   1   14   15     2     9    1.0127E+00 -5.5211E-04   1.0132E+00  0.000E+00  0.000E+00  0.000E+00  1.46266E+00  1.000E+00  1.000E+00  3.591E-04  0.000E+00  0.000E+00
   1   15   15     2    10    1.0132E+00 -1.7169E-03   1.0149E+00  0.000E+00  0.000E+00  0.000E+00  1.39720E+00  1.000E+00  1.000E+00  1.071E-03  0.000E+00  0.000E+00
   1   15   16     2    11    1.0149E+00 -5.4562E-04   1.0155E+00  0.000E+00  0.000E+00  0.000E+00  1.33320E+00  1.000E+00  1.000E+00  3.274E-04  0.000E+00  0.000E+00
   1   16   16     2    12    1.0155E+00 -1.9107E-03   1.0174E+00  0.000E+00  0.000E+00  0.000E+00  1.26775E+00  1.000E+00  1.000E+00  1.103E-03  0.000E+00  0.000E+00
   1   16   17     2    13    1.0174E+00 -5.3090E-04   1.0179E+00  0.000E+00  0.000E+00  0.000E+00  1.20375E+00  1.000E+00  1.000E+00  2.956E-04  0.000E+00  0.000E+00
   1   17   17     2    14    1.0179E+00 -2.1127E-03   1.0200E+00  0.000E+00  0.000E+00  0.000E+00  1.13829E+00  1.000E+00  1.000E+00  1.135E-03  0.000E+00  0.000E+00
   1   17   18     2    15    1.0200E+00 -5.0796E-04   1.0205E+00  0.000E+00  0.000E+00  0.000E+00  1.07429E+00  1.000E+00  1.000E+00  2.638E-04  0.000E+00  0.000E+00
   1   18   18     2    16    1.0205E+00 -1.3386E-03   1.0219E+00  0.000E+00  0.000E+00  0.000E+00  1.03111E+00  1.000E+00  1.000E+00  6.799E-04  0.000E+00  0.000E+00



 UBDSV3 SAVING "           GW ET" ON UNIT   9 AT TIME STEP     8, STRESS PERIOD   2
 UBDSV3 SAVING "    UZF RECHARGE" ON UNIT   9 AT TIME STEP     8, STRESS PERIOD   2
 UBDSV3 SAVING " SURFACE LEAKAGE" ON UNIT   9 AT TIME STEP     8, STRESS PERIOD   2
 UBDSV3 SAVING "       HORT+DUNN" ON UNIT   9 AT TIME STEP     8, STRESS PERIOD   2
 UBDSV3 SAVING "  STORAGE CHANGE" ON UNIT   9 AT TIME STEP     8, STRESS PERIOD   2


UNSATURATED ZONE PACKAGE VOLUMETRIC BUDGET FOR  TIME STEP     8 STRESS PERIOD    2
  ------------------------------------------------------------------------------



     CUMULATIVE VOLUMES      L**3       RATES FOR THIS TIME STEP      L**3/T
     ------------------                 ------------------------

           IN:                                      IN:
           ---                                      ---
        INFILTRATION =       0.0000E+00          INFILTRATION =       0.0000E+00

          OUT:                                     OUT:
          ----                                     ----
              UZF ET =       0.0000E+00                UZF ET =       0.0000E+00
        UZF RECHARGE =       0.0000E+00          UZF RECHARGE =       0.0000E+00

            IN - OUT =       0.0000E+00              IN - OUT =       0.0000E+00

          STORAGE:                                 STORAGE:
          --------                                 --------
      STORAGE CHANGE =       0.0000E+00        STORAGE CHANGE =       0.0000E+00

 PERCENT DISCREPANCY IS DIFFERENCE BETWEEN IN-OUT MINUS CHANGE IN STORAGE
 DIVIDED BY THE AVERAGE OF IN AND OUT TIMES 100

 PERCENT DISCREPANCY =           0.00     PERCENT DISCREPANCY =           0.00







 HEAD WILL BE SAVED ON UNIT   37 AT END OF TIME STEP    8, STRESS PERIOD    2

 DRAWDOWN WILL BE SAVED ON UNIT   38 AT END OF TIME STEP    8, STRESS PERIOD    2
1
  VOLUMETRIC BUDGET FOR ENTIRE MODEL AT END OF TIME STEP    8, STRESS PERIOD   2
  ------------------------------------------------------------------------------

     CUMULATIVE VOLUMES      L**3       RATES FOR THIS TIME STEP      L**3/T
     ------------------                 ------------------------

           IN:                                      IN:
           ---                                      ---
             STORAGE =       1.5538E-06               STORAGE =           0.0000
       CONSTANT HEAD =           0.4663         CONSTANT HEAD =       2.1878E-02
      STREAM LEAKAGE =           0.0000        STREAM LEAKAGE =           0.0000
        UZF RECHARGE =           0.0000          UZF RECHARGE =           0.0000
               GW ET =           0.0000                 GW ET =           0.0000
     SURFACE LEAKAGE =           0.0000       SURFACE LEAKAGE =           0.0000

            TOTAL IN =           0.4663              TOTAL IN =       2.1878E-02

          OUT:                                     OUT:
          ----                                     ----
             STORAGE =       8.9598E-07               STORAGE =           0.0000
       CONSTANT HEAD =           0.0000         CONSTANT HEAD =           0.0000
      STREAM LEAKAGE =           0.4664        STREAM LEAKAGE =       2.1883E-02
        UZF RECHARGE =           0.0000          UZF RECHARGE =           0.0000
               GW ET =           0.0000                 GW ET =           0.0000
     SURFACE LEAKAGE =           0.0000       SURFACE LEAKAGE =           0.0000

           TOTAL OUT =           0.4664             TOTAL OUT =       2.1883E-02

            IN - OUT =      -1.1745E-04              IN - OUT =      -4.7293E-06

 PERCENT DISCREPANCY =          -0.03     PERCENT DISCREPANCY =          -0.02






         TIME SUMMARY AT END OF TIME STEP    8 IN STRESS PERIOD    2
                    SECONDS     MINUTES      HOURS       DAYS        YEARS
                    -----------------------------------------------------------
   TIME STEP LENGTH  5.3430     8.90504E-02 1.48417E-03 6.18405E-05 1.69310E-07
 STRESS PERIOD TIME  20.315     0.33858     5.64299E-03 2.35125E-04 6.43736E-07
         TOTAL TIME  21.315     0.35525     5.92077E-03 2.46699E-04 6.75424E-07
1
 
 SOLVING FOR HEAD 
     1 CALLS TO PCG ROUTINE FOR TIME STEP     9 IN STRESS PERIOD    2
     1 TOTAL ITERATIONS

 MAXIMUM HEAD CHANGE FOR EACH ITERATION (1 INDICATES THE FIRST INNER ITERATION):

    HEAD CHANGE    HEAD CHANGE    HEAD CHANGE    HEAD CHANGE    HEAD CHANGE 
   LAYER,ROW,COL  LAYER,ROW,COL  LAYER,ROW,COL  LAYER,ROW,COL  LAYER,ROW,COL
 ---------------------------------------------------------------------------
  1  0.2133E-08
   (  1,  1, 20)

 MAXIMUM RESIDUAL FOR EACH ITERATION (1 INDICATES THE FIRST INNER ITERATION):

    RESIDUAL       RESIDUAL       RESIDUAL       RESIDUAL       RESIDUAL    
   LAYER,ROW,COL  LAYER,ROW,COL  LAYER,ROW,COL  LAYER,ROW,COL  LAYER,ROW,COL
 ---------------------------------------------------------------------------
  1 -0.8366E-05
   (  2,  2,  2)



 OUTPUT CONTROL FOR STRESS PERIOD    2   TIME STEP    9
    SAVE HEAD FOR ALL LAYERS
    SAVE DRAWDOWN FOR ALL LAYERS
    SAVE BUDGET
    PRINT BUDGET
 UBDSV1 SAVING "         STORAGE" ON UNIT   9 AT TIME STEP     9, STRESS PERIOD   2
 UBDSV2 SAVING "   CONSTANT HEAD" ON UNIT   9 AT TIME STEP     9, STRESS PERIOD   2
 UBDSV1 SAVING "FLOW RIGHT FACE " ON UNIT   9 AT TIME STEP     9, STRESS PERIOD   2
 UBDSV1 SAVING "FLOW FRONT FACE " ON UNIT   9 AT TIME STEP     9, STRESS PERIOD   2
 UBDSV1 SAVING "FLOW LOWER FACE " ON UNIT   9 AT TIME STEP     9, STRESS PERIOD   2
 UBDSV4 SAVING "  STREAM LEAKAGE" ON UNIT   9 AT TIME STEP     9, STRESS PERIOD   2



 STREAM LISTING     PERIOD      2   STEP        9

 LAYER ROW COL. STREAM  RCH.   FLOW INTO    STREAM     FLOW OUT OF   OVRLND.    DIRECT     STREAM      STREAM      STREAM     STREAM  STREAMBED   FLOW TO   CHNG. UNSAT. 
                SEG.NO.  NO.   STRM. RCH.    LOSS       STRM. RCH.   RUNOFF     PRECIP       ET         HEAD        DEPTH      WIDTH  CONDCTNC.   WAT. TAB.

   1    2    2     1     1    1.0000E+00 -8.9848E-06   1.0000E+00  0.000E+00  0.000E+00  0.000E+00  2.97978E+00  1.000E+00  1.000E+00  4.444E-04  0.000E+00  0.000E+00
   1    2    3     1     2    1.0000E+00 -3.0181E-05   1.0000E+00  0.000E+00  0.000E+00  0.000E+00  2.93755E+00  1.000E+00  1.000E+00  4.834E-04  0.000E+00  0.000E+00
   1    3    3     1     3    1.0000E+00 -1.1937E-04   1.0002E+00  0.000E+00  0.000E+00  0.000E+00  2.87283E+00  1.000E+00  1.000E+00  9.388E-04  0.000E+00  0.000E+00
   1    3    4     1     4    1.0002E+00 -8.9380E-05   1.0002E+00  0.000E+00  0.000E+00  0.000E+00  2.80883E+00  1.000E+00  1.000E+00  4.676E-04  0.000E+00  0.000E+00
   1    4    4     1     5    1.0002E+00 -2.4425E-04   1.0005E+00  0.000E+00  0.000E+00  0.000E+00  2.74411E+00  1.000E+00  1.000E+00  9.546E-04  0.000E+00  0.000E+00
   1    4    5     1     6    1.0005E+00 -1.4451E-04   1.0006E+00  0.000E+00  0.000E+00  0.000E+00  2.68011E+00  1.000E+00  1.000E+00  4.518E-04  0.000E+00  0.000E+00
   1    5    5     1     7    1.0006E+00 -3.7320E-04   1.0010E+00  0.000E+00  0.000E+00  0.000E+00  2.61540E+00  1.000E+00  1.000E+00  9.704E-04  0.000E+00  0.000E+00
   1    5    6     1     8    1.0010E+00 -1.9558E-04   1.0012E+00  0.000E+00  0.000E+00  0.000E+00  2.55140E+00  1.000E+00  1.000E+00  4.360E-04  0.000E+00  0.000E+00
   1    6    6     1     9    1.0012E+00 -5.0622E-04   1.0017E+00  0.000E+00  0.000E+00  0.000E+00  2.48668E+00  1.000E+00  1.000E+00  9.862E-04  0.000E+00  0.000E+00
   1    6    7     1    10    1.0017E+00 -2.4257E-04   1.0020E+00  0.000E+00  0.000E+00  0.000E+00  2.42268E+00  1.000E+00  1.000E+00  4.202E-04  0.000E+00  0.000E+00
   1    7    7     1    11    1.0020E+00 -6.4331E-04   1.0026E+00  0.000E+00  0.000E+00  0.000E+00  2.35796E+00  1.000E+00  1.000E+00  1.002E-03  0.000E+00  0.000E+00
   1    7    8     1    12    1.0026E+00 -2.8550E-04   1.0029E+00  0.000E+00  0.000E+00  0.000E+00  2.29396E+00  1.000E+00  1.000E+00  4.044E-04  0.000E+00  0.000E+00
   1    8    8     1    13    1.0029E+00 -7.8446E-04   1.0037E+00  0.000E+00  0.000E+00  0.000E+00  2.22924E+00  1.000E+00  1.000E+00  1.018E-03  0.000E+00  0.000E+00
   1    8    9     1    14    1.0037E+00 -3.2436E-04   1.0040E+00  0.000E+00  0.000E+00  0.000E+00  2.16524E+00  1.000E+00  1.000E+00  3.886E-04  0.000E+00  0.000E+00
   1    9    9     1    15    1.0040E+00 -9.2969E-04   1.0049E+00  0.000E+00  0.000E+00  0.000E+00  2.10052E+00  1.000E+00  1.000E+00  1.034E-03  0.000E+00  0.000E+00
   1    9   10     1    16    1.0049E+00 -3.5915E-04   1.0053E+00  0.000E+00  0.000E+00  0.000E+00  2.03652E+00  1.000E+00  1.000E+00  3.728E-04  0.000E+00  0.000E+00
   1   10   10     1    17    1.0053E+00 -2.1276E-04   1.0055E+00  0.000E+00  0.000E+00  0.000E+00  2.00978E+00  1.000E+00  1.000E+00  2.149E-04  0.000E+00  0.000E+00
   1   10   11     2     1    1.0055E+00 -4.6601E-04   1.0060E+00  0.000E+00  0.000E+00  0.000E+00  1.97911E+00  1.000E+00  1.000E+00  4.565E-04  0.000E+00  0.000E+00
   1   11   11     2     2    1.0060E+00 -1.0243E-03   1.0070E+00  0.000E+00  0.000E+00  0.000E+00  1.91502E+00  1.000E+00  1.000E+00  9.441E-04  0.000E+00  0.000E+00
   1   11   12     2     3    1.0070E+00 -5.2220E-04   1.0075E+00  0.000E+00  0.000E+00  0.000E+00  1.85102E+00  1.000E+00  1.000E+00  4.545E-04  0.000E+00  0.000E+00
   1   12   12     2     4    1.0075E+00 -1.1851E-03   1.0087E+00  0.000E+00  0.000E+00  0.000E+00  1.78557E+00  1.000E+00  1.000E+00  9.759E-04  0.000E+00  0.000E+00
   1   12   13     2     5    1.0087E+00 -5.4040E-04   1.0092E+00  0.000E+00  0.000E+00  0.000E+00  1.72157E+00  1.000E+00  1.000E+00  4.227E-04  0.000E+00  0.000E+00
   1   13   13     2     6    1.0092E+00 -1.3542E-03   1.0106E+00  0.000E+00  0.000E+00  0.000E+00  1.65611E+00  1.000E+00  1.000E+00  1.008E-03  0.000E+00  0.000E+00
   1   13   14     2     7    1.0106E+00 -5.5037E-04   1.0111E+00  0.000E+00  0.000E+00  0.000E+00  1.59211E+00  1.000E+00  1.000E+00  3.909E-04  0.000E+00  0.000E+00
   1   14   14     2     8    1.0111E+00 -1.5314E-03   1.0127E+00  0.000E+00  0.000E+00  0.000E+00  1.52666E+00  1.000E+00  1.000E+00  1.039E-03  0.000E+00  0.000E+00
   1   14   15     2     9    1.0127E+00 -5.5211E-04   1.0132E+00  0.000E+00  0.000E+00  0.000E+00  1.46266E+00  1.000E+00  1.000E+00  3.591E-04  0.000E+00  0.000E+00
   1   15   15     2    10    1.0132E+00 -1.7169E-03   1.0149E+00  0.000E+00  0.000E+00  0.000E+00  1.39720E+00  1.000E+00  1.000E+00  1.071E-03  0.000E+00  0.000E+00
   1   15   16     2    11    1.0149E+00 -5.4562E-04   1.0155E+00  0.000E+00  0.000E+00  0.000E+00  1.33320E+00  1.000E+00  1.000E+00  3.274E-04  0.000E+00  0.000E+00
   1   16   16     2    12    1.0155E+00 -1.9107E-03   1.0174E+00  0.000E+00  0.000E+00  0.000E+00  1.26775E+00  1.000E+00  1.000E+00  1.103E-03  0.000E+00  0.000E+00
   1   16   17     2    13    1.0174E+00 -5.3090E-04   1.0179E+00  0.000E+00  0.000E+00  0.000E+00  1.20375E+00  1.000E+00  1.000E+00  2.956E-04  0.000E+00  0.000E+00
   1   17   17     2    14    1.0179E+00 -2.1127E-03   1.0200E+00  0.000E+00  0.000E+00  0.000E+00  1.13829E+00  1.000E+00  1.000E+00  1.135E-03  0.000E+00  0.000E+00
   1   17   18     2    15    1.0200E+00 -5.0796E-04   1.0205E+00  0.000E+00  0.000E+00  0.000E+00  1.07429E+00  1.000E+00  1.000E+00  2.638E-04  0.000E+00  0.000E+00
   1   18   18     2    16    1.0205E+00 -1.3386E-03   1.0219E+00  0.000E+00  0.000E+00  0.000E+00  1.03111E+00  1.000E+00  1.000E+00  6.799E-04  0.000E+00  0.000E+00



 UBDSV3 SAVING "           GW ET" ON UNIT   9 AT TIME STEP     9, STRESS PERIOD   2
 UBDSV3 SAVING "    UZF RECHARGE" ON UNIT   9 AT TIME STEP     9, STRESS PERIOD   2
 UBDSV3 SAVING " SURFACE LEAKAGE" ON UNIT   9 AT TIME STEP     9, STRESS PERIOD   2
 UBDSV3 SAVING "       HORT+DUNN" ON UNIT   9 AT TIME STEP     9, STRESS PERIOD   2
 UBDSV3 SAVING "  STORAGE CHANGE" ON UNIT   9 AT TIME STEP     9, STRESS PERIOD   2


UNSATURATED ZONE PACKAGE VOLUMETRIC BUDGET FOR  TIME STEP     9 STRESS PERIOD    2
  ------------------------------------------------------------------------------



     CUMULATIVE VOLUMES      L**3       RATES FOR THIS TIME STEP      L**3/T
     ------------------                 ------------------------

           IN:                                      IN:
           ---                                      ---
        INFILTRATION =       0.0000E+00          INFILTRATION =       0.0000E+00

          OUT:                                     OUT:
          ----                                     ----
              UZF ET =       0.0000E+00                UZF ET =       0.0000E+00
        UZF RECHARGE =       0.0000E+00          UZF RECHARGE =       0.0000E+00

            IN - OUT =       0.0000E+00              IN - OUT =       0.0000E+00

          STORAGE:                                 STORAGE:
          --------                                 --------
      STORAGE CHANGE =       0.0000E+00        STORAGE CHANGE =       0.0000E+00

 PERCENT DISCREPANCY IS DIFFERENCE BETWEEN IN-OUT MINUS CHANGE IN STORAGE
 DIVIDED BY THE AVERAGE OF IN AND OUT TIMES 100

 PERCENT DISCREPANCY =           0.00     PERCENT DISCREPANCY =           0.00







 HEAD WILL BE SAVED ON UNIT   37 AT END OF TIME STEP    9, STRESS PERIOD    2

 DRAWDOWN WILL BE SAVED ON UNIT   38 AT END OF TIME STEP    9, STRESS PERIOD    2
1
  VOLUMETRIC BUDGET FOR ENTIRE MODEL AT END OF TIME STEP    9, STRESS PERIOD   2
  ------------------------------------------------------------------------------

     CUMULATIVE VOLUMES      L**3       RATES FOR THIS TIME STEP      L**3/T
     ------------------                 ------------------------

           IN:                                      IN:
           ---                                      ---
             STORAGE =       1.7608E-06               STORAGE =       2.9802E-08
       CONSTANT HEAD =           0.6183         CONSTANT HEAD =       2.1879E-02
      STREAM LEAKAGE =           0.0000        STREAM LEAKAGE =           0.0000
        UZF RECHARGE =           0.0000          UZF RECHARGE =           0.0000
               GW ET =           0.0000                 GW ET =           0.0000
     SURFACE LEAKAGE =           0.0000       SURFACE LEAKAGE =           0.0000

            TOTAL IN =           0.6183              TOTAL IN =       2.1879E-02

          OUT:                                     OUT:
          ----                                     ----
             STORAGE =       1.3100E-06               STORAGE =       5.9605E-08
       CONSTANT HEAD =           0.0000         CONSTANT HEAD =           0.0000
      STREAM LEAKAGE =           0.6184        STREAM LEAKAGE =       2.1883E-02
        UZF RECHARGE =           0.0000          UZF RECHARGE =           0.0000
               GW ET =           0.0000                 GW ET =           0.0000
     SURFACE LEAKAGE =           0.0000       SURFACE LEAKAGE =           0.0000

           TOTAL OUT =           0.6184             TOTAL OUT =       2.1883E-02

            IN - OUT =      -1.4806E-04              IN - OUT =      -4.4145E-06

 PERCENT DISCREPANCY =          -0.02     PERCENT DISCREPANCY =          -0.02






         TIME SUMMARY AT END OF TIME STEP    9 IN STRESS PERIOD    2
                    SECONDS     MINUTES      HOURS       DAYS        YEARS
                    -----------------------------------------------------------
   TIME STEP LENGTH  6.9459     0.11577     1.92942E-03 8.03927E-05 2.20103E-07
 STRESS PERIOD TIME  27.261     0.45435     7.57242E-03 3.15517E-04 8.63840E-07
         TOTAL TIME  28.261     0.47101     7.85020E-03 3.27091E-04 8.95528E-07
1
 
 SOLVING FOR HEAD 
     1 CALLS TO PCG ROUTINE FOR TIME STEP    10 IN STRESS PERIOD    2
     1 TOTAL ITERATIONS

 MAXIMUM HEAD CHANGE FOR EACH ITERATION (1 INDICATES THE FIRST INNER ITERATION):

    HEAD CHANGE    HEAD CHANGE    HEAD CHANGE    HEAD CHANGE    HEAD CHANGE 
   LAYER,ROW,COL  LAYER,ROW,COL  LAYER,ROW,COL  LAYER,ROW,COL  LAYER,ROW,COL
 ---------------------------------------------------------------------------
  1 -0.2289E-08
   (  2,  1, 20)

 MAXIMUM RESIDUAL FOR EACH ITERATION (1 INDICATES THE FIRST INNER ITERATION):

    RESIDUAL       RESIDUAL       RESIDUAL       RESIDUAL       RESIDUAL    
   LAYER,ROW,COL  LAYER,ROW,COL  LAYER,ROW,COL  LAYER,ROW,COL  LAYER,ROW,COL
 ---------------------------------------------------------------------------
  1 -0.7648E-05
   (  2,  2,  2)



 OUTPUT CONTROL FOR STRESS PERIOD    2   TIME STEP   10
    SAVE HEAD FOR ALL LAYERS
    SAVE DRAWDOWN FOR ALL LAYERS
    SAVE BUDGET
    PRINT BUDGET
 UBDSV1 SAVING "         STORAGE" ON UNIT   9 AT TIME STEP    10, STRESS PERIOD   2
 UBDSV2 SAVING "   CONSTANT HEAD" ON UNIT   9 AT TIME STEP    10, STRESS PERIOD   2
 UBDSV1 SAVING "FLOW RIGHT FACE " ON UNIT   9 AT TIME STEP    10, STRESS PERIOD   2
 UBDSV1 SAVING "FLOW FRONT FACE " ON UNIT   9 AT TIME STEP    10, STRESS PERIOD   2
 UBDSV1 SAVING "FLOW LOWER FACE " ON UNIT   9 AT TIME STEP    10, STRESS PERIOD   2
 UBDSV4 SAVING "  STREAM LEAKAGE" ON UNIT   9 AT TIME STEP    10, STRESS PERIOD   2



 STREAM LISTING     PERIOD      2   STEP       10

 LAYER ROW COL. STREAM  RCH.   FLOW INTO    STREAM     FLOW OUT OF   OVRLND.    DIRECT     STREAM      STREAM      STREAM     STREAM  STREAMBED   FLOW TO   CHNG. UNSAT. 
                SEG.NO.  NO.   STRM. RCH.    LOSS       STRM. RCH.   RUNOFF     PRECIP       ET         HEAD        DEPTH      WIDTH  CONDCTNC.   WAT. TAB.

   1    2    2     1     1    1.0000E+00 -8.9848E-06   1.0000E+00  0.000E+00  0.000E+00  0.000E+00  2.97978E+00  1.000E+00  1.000E+00  4.444E-04  0.000E+00  0.000E+00
   1    2    3     1     2    1.0000E+00 -3.0181E-05   1.0000E+00  0.000E+00  0.000E+00  0.000E+00  2.93755E+00  1.000E+00  1.000E+00  4.834E-04  0.000E+00  0.000E+00
   1    3    3     1     3    1.0000E+00 -1.1937E-04   1.0002E+00  0.000E+00  0.000E+00  0.000E+00  2.87283E+00  1.000E+00  1.000E+00  9.388E-04  0.000E+00  0.000E+00
   1    3    4     1     4    1.0002E+00 -8.9380E-05   1.0002E+00  0.000E+00  0.000E+00  0.000E+00  2.80883E+00  1.000E+00  1.000E+00  4.676E-04  0.000E+00  0.000E+00
   1    4    4     1     5    1.0002E+00 -2.4425E-04   1.0005E+00  0.000E+00  0.000E+00  0.000E+00  2.74411E+00  1.000E+00  1.000E+00  9.546E-04  0.000E+00  0.000E+00
   1    4    5     1     6    1.0005E+00 -1.4451E-04   1.0006E+00  0.000E+00  0.000E+00  0.000E+00  2.68011E+00  1.000E+00  1.000E+00  4.518E-04  0.000E+00  0.000E+00
   1    5    5     1     7    1.0006E+00 -3.7320E-04   1.0010E+00  0.000E+00  0.000E+00  0.000E+00  2.61540E+00  1.000E+00  1.000E+00  9.704E-04  0.000E+00  0.000E+00
   1    5    6     1     8    1.0010E+00 -1.9558E-04   1.0012E+00  0.000E+00  0.000E+00  0.000E+00  2.55140E+00  1.000E+00  1.000E+00  4.360E-04  0.000E+00  0.000E+00
   1    6    6     1     9    1.0012E+00 -5.0622E-04   1.0017E+00  0.000E+00  0.000E+00  0.000E+00  2.48668E+00  1.000E+00  1.000E+00  9.862E-04  0.000E+00  0.000E+00
   1    6    7     1    10    1.0017E+00 -2.4257E-04   1.0020E+00  0.000E+00  0.000E+00  0.000E+00  2.42268E+00  1.000E+00  1.000E+00  4.202E-04  0.000E+00  0.000E+00
   1    7    7     1    11    1.0020E+00 -6.4331E-04   1.0026E+00  0.000E+00  0.000E+00  0.000E+00  2.35796E+00  1.000E+00  1.000E+00  1.002E-03  0.000E+00  0.000E+00
   1    7    8     1    12    1.0026E+00 -2.8550E-04   1.0029E+00  0.000E+00  0.000E+00  0.000E+00  2.29396E+00  1.000E+00  1.000E+00  4.044E-04  0.000E+00  0.000E+00
   1    8    8     1    13    1.0029E+00 -7.8446E-04   1.0037E+00  0.000E+00  0.000E+00  0.000E+00  2.22924E+00  1.000E+00  1.000E+00  1.018E-03  0.000E+00  0.000E+00
   1    8    9     1    14    1.0037E+00 -3.2436E-04   1.0040E+00  0.000E+00  0.000E+00  0.000E+00  2.16524E+00  1.000E+00  1.000E+00  3.886E-04  0.000E+00  0.000E+00
   1    9    9     1    15    1.0040E+00 -9.2969E-04   1.0049E+00  0.000E+00  0.000E+00  0.000E+00  2.10052E+00  1.000E+00  1.000E+00  1.034E-03  0.000E+00  0.000E+00
   1    9   10     1    16    1.0049E+00 -3.5915E-04   1.0053E+00  0.000E+00  0.000E+00  0.000E+00  2.03652E+00  1.000E+00  1.000E+00  3.728E-04  0.000E+00  0.000E+00
   1   10   10     1    17    1.0053E+00 -2.1276E-04   1.0055E+00  0.000E+00  0.000E+00  0.000E+00  2.00978E+00  1.000E+00  1.000E+00  2.149E-04  0.000E+00  0.000E+00
   1   10   11     2     1    1.0055E+00 -4.6601E-04   1.0060E+00  0.000E+00  0.000E+00  0.000E+00  1.97911E+00  1.000E+00  1.000E+00  4.565E-04  0.000E+00  0.000E+00
   1   11   11     2     2    1.0060E+00 -1.0243E-03   1.0070E+00  0.000E+00  0.000E+00  0.000E+00  1.91502E+00  1.000E+00  1.000E+00  9.441E-04  0.000E+00  0.000E+00
   1   11   12     2     3    1.0070E+00 -5.2220E-04   1.0075E+00  0.000E+00  0.000E+00  0.000E+00  1.85102E+00  1.000E+00  1.000E+00  4.545E-04  0.000E+00  0.000E+00
   1   12   12     2     4    1.0075E+00 -1.1851E-03   1.0087E+00  0.000E+00  0.000E+00  0.000E+00  1.78557E+00  1.000E+00  1.000E+00  9.759E-04  0.000E+00  0.000E+00
   1   12   13     2     5    1.0087E+00 -5.4040E-04   1.0092E+00  0.000E+00  0.000E+00  0.000E+00  1.72157E+00  1.000E+00  1.000E+00  4.227E-04  0.000E+00  0.000E+00
   1   13   13     2     6    1.0092E+00 -1.3542E-03   1.0106E+00  0.000E+00  0.000E+00  0.000E+00  1.65611E+00  1.000E+00  1.000E+00  1.008E-03  0.000E+00  0.000E+00
   1   13   14     2     7    1.0106E+00 -5.5037E-04   1.0111E+00  0.000E+00  0.000E+00  0.000E+00  1.59211E+00  1.000E+00  1.000E+00  3.909E-04  0.000E+00  0.000E+00
   1   14   14     2     8    1.0111E+00 -1.5314E-03   1.0127E+00  0.000E+00  0.000E+00  0.000E+00  1.52666E+00  1.000E+00  1.000E+00  1.039E-03  0.000E+00  0.000E+00
   1   14   15     2     9    1.0127E+00 -5.5211E-04   1.0132E+00  0.000E+00  0.000E+00  0.000E+00  1.46266E+00  1.000E+00  1.000E+00  3.591E-04  0.000E+00  0.000E+00
   1   15   15     2    10    1.0132E+00 -1.7169E-03   1.0149E+00  0.000E+00  0.000E+00  0.000E+00  1.39720E+00  1.000E+00  1.000E+00  1.071E-03  0.000E+00  0.000E+00
   1   15   16     2    11    1.0149E+00 -5.4562E-04   1.0155E+00  0.000E+00  0.000E+00  0.000E+00  1.33320E+00  1.000E+00  1.000E+00  3.274E-04  0.000E+00  0.000E+00
   1   16   16     2    12    1.0155E+00 -1.9107E-03   1.0174E+00  0.000E+00  0.000E+00  0.000E+00  1.26775E+00  1.000E+00  1.000E+00  1.103E-03  0.000E+00  0.000E+00
   1   16   17     2    13    1.0174E+00 -5.3090E-04   1.0179E+00  0.000E+00  0.000E+00  0.000E+00  1.20375E+00  1.000E+00  1.000E+00  2.956E-04  0.000E+00  0.000E+00
   1   17   17     2    14    1.0179E+00 -2.1127E-03   1.0200E+00  0.000E+00  0.000E+00  0.000E+00  1.13829E+00  1.000E+00  1.000E+00  1.135E-03  0.000E+00  0.000E+00
   1   17   18     2    15    1.0200E+00 -5.0796E-04   1.0205E+00  0.000E+00  0.000E+00  0.000E+00  1.07429E+00  1.000E+00  1.000E+00  2.638E-04  0.000E+00  0.000E+00
   1   18   18     2    16    1.0205E+00 -1.3386E-03   1.0219E+00  0.000E+00  0.000E+00  0.000E+00  1.03111E+00  1.000E+00  1.000E+00  6.799E-04  0.000E+00  0.000E+00



 UBDSV3 SAVING "           GW ET" ON UNIT   9 AT TIME STEP    10, STRESS PERIOD   2
 UBDSV3 SAVING "    UZF RECHARGE" ON UNIT   9 AT TIME STEP    10, STRESS PERIOD   2
 UBDSV3 SAVING " SURFACE LEAKAGE" ON UNIT   9 AT TIME STEP    10, STRESS PERIOD   2
 UBDSV3 SAVING "       HORT+DUNN" ON UNIT   9 AT TIME STEP    10, STRESS PERIOD   2
 UBDSV3 SAVING "  STORAGE CHANGE" ON UNIT   9 AT TIME STEP    10, STRESS PERIOD   2


UNSATURATED ZONE PACKAGE VOLUMETRIC BUDGET FOR  TIME STEP    10 STRESS PERIOD    2
  ------------------------------------------------------------------------------



     CUMULATIVE VOLUMES      L**3       RATES FOR THIS TIME STEP      L**3/T
     ------------------                 ------------------------

           IN:                                      IN:
           ---                                      ---
        INFILTRATION =       0.0000E+00          INFILTRATION =       0.0000E+00

          OUT:                                     OUT:
          ----                                     ----
              UZF ET =       0.0000E+00                UZF ET =       0.0000E+00
        UZF RECHARGE =       0.0000E+00          UZF RECHARGE =       0.0000E+00

            IN - OUT =       0.0000E+00              IN - OUT =       0.0000E+00

          STORAGE:                                 STORAGE:
          --------                                 --------
      STORAGE CHANGE =       0.0000E+00        STORAGE CHANGE =       0.0000E+00

 PERCENT DISCREPANCY IS DIFFERENCE BETWEEN IN-OUT MINUS CHANGE IN STORAGE
 DIVIDED BY THE AVERAGE OF IN AND OUT TIMES 100

 PERCENT DISCREPANCY =           0.00     PERCENT DISCREPANCY =           0.00







 HEAD WILL BE SAVED ON UNIT   37 AT END OF TIME STEP   10, STRESS PERIOD    2

 DRAWDOWN WILL BE SAVED ON UNIT   38 AT END OF TIME STEP   10, STRESS PERIOD    2
1
  VOLUMETRIC BUDGET FOR ENTIRE MODEL AT END OF TIME STEP   10, STRESS PERIOD   2
  ------------------------------------------------------------------------------

     CUMULATIVE VOLUMES      L**3       RATES FOR THIS TIME STEP      L**3/T
     ------------------                 ------------------------

           IN:                                      IN:
           ---                                      ---
             STORAGE =       2.2990E-06               STORAGE =       5.9605E-08
       CONSTANT HEAD =           0.8158         CONSTANT HEAD =       2.1879E-02
      STREAM LEAKAGE =           0.0000        STREAM LEAKAGE =           0.0000
        UZF RECHARGE =           0.0000          UZF RECHARGE =           0.0000
               GW ET =           0.0000                 GW ET =           0.0000
     SURFACE LEAKAGE =           0.0000       SURFACE LEAKAGE =           0.0000

            TOTAL IN =           0.8158              TOTAL IN =       2.1879E-02

          OUT:                                     OUT:
          ----                                     ----
             STORAGE =       1.3100E-06               STORAGE =           0.0000
       CONSTANT HEAD =           0.0000         CONSTANT HEAD =           0.0000
      STREAM LEAKAGE =           0.8160        STREAM LEAKAGE =       2.1883E-02
        UZF RECHARGE =           0.0000          UZF RECHARGE =           0.0000
               GW ET =           0.0000                 GW ET =           0.0000
     SURFACE LEAKAGE =           0.0000       SURFACE LEAKAGE =           0.0000

           TOTAL OUT =           0.8160             TOTAL OUT =       2.1883E-02

            IN - OUT =      -1.8489E-04              IN - OUT =      -4.0792E-06

 PERCENT DISCREPANCY =          -0.02     PERCENT DISCREPANCY =          -0.02






         TIME SUMMARY AT END OF TIME STEP   10 IN STRESS PERIOD    2
                    SECONDS     MINUTES      HOURS       DAYS        YEARS
                    -----------------------------------------------------------
   TIME STEP LENGTH  9.0297     0.15050     2.50825E-03 1.04510E-04 2.86134E-07
 STRESS PERIOD TIME  36.290     0.60484     1.00807E-02 4.20028E-04 1.14997E-06
         TOTAL TIME  37.290     0.62151     1.03584E-02 4.31602E-04 1.18166E-06
1
 
 SOLVING FOR HEAD 
     1 CALLS TO PCG ROUTINE FOR TIME STEP    11 IN STRESS PERIOD    2
     1 TOTAL ITERATIONS

 MAXIMUM HEAD CHANGE FOR EACH ITERATION (1 INDICATES THE FIRST INNER ITERATION):

    HEAD CHANGE    HEAD CHANGE    HEAD CHANGE    HEAD CHANGE    HEAD CHANGE 
   LAYER,ROW,COL  LAYER,ROW,COL  LAYER,ROW,COL  LAYER,ROW,COL  LAYER,ROW,COL
 ---------------------------------------------------------------------------
  1  0.1686E-08
   (  1,  1, 20)

 MAXIMUM RESIDUAL FOR EACH ITERATION (1 INDICATES THE FIRST INNER ITERATION):

    RESIDUAL       RESIDUAL       RESIDUAL       RESIDUAL       RESIDUAL    
   LAYER,ROW,COL  LAYER,ROW,COL  LAYER,ROW,COL  LAYER,ROW,COL  LAYER,ROW,COL
 ---------------------------------------------------------------------------
  1 -0.6872E-05
   (  2,  2,  2)



 OUTPUT CONTROL FOR STRESS PERIOD    2   TIME STEP   11
    SAVE HEAD FOR ALL LAYERS
    SAVE DRAWDOWN FOR ALL LAYERS
    SAVE BUDGET
    PRINT BUDGET
 UBDSV1 SAVING "         STORAGE" ON UNIT   9 AT TIME STEP    11, STRESS PERIOD   2
 UBDSV2 SAVING "   CONSTANT HEAD" ON UNIT   9 AT TIME STEP    11, STRESS PERIOD   2
 UBDSV1 SAVING "FLOW RIGHT FACE " ON UNIT   9 AT TIME STEP    11, STRESS PERIOD   2
 UBDSV1 SAVING "FLOW FRONT FACE " ON UNIT   9 AT TIME STEP    11, STRESS PERIOD   2
 UBDSV1 SAVING "FLOW LOWER FACE " ON UNIT   9 AT TIME STEP    11, STRESS PERIOD   2
 UBDSV4 SAVING "  STREAM LEAKAGE" ON UNIT   9 AT TIME STEP    11, STRESS PERIOD   2



 STREAM LISTING     PERIOD      2   STEP       11

 LAYER ROW COL. STREAM  RCH.   FLOW INTO    STREAM     FLOW OUT OF   OVRLND.    DIRECT     STREAM      STREAM      STREAM     STREAM  STREAMBED   FLOW TO   CHNG. UNSAT. 
                SEG.NO.  NO.   STRM. RCH.    LOSS       STRM. RCH.   RUNOFF     PRECIP       ET         HEAD        DEPTH      WIDTH  CONDCTNC.   WAT. TAB.

   1    2    2     1     1    1.0000E+00 -8.9848E-06   1.0000E+00  0.000E+00  0.000E+00  0.000E+00  2.97978E+00  1.000E+00  1.000E+00  4.444E-04  0.000E+00  0.000E+00
   1    2    3     1     2    1.0000E+00 -3.0181E-05   1.0000E+00  0.000E+00  0.000E+00  0.000E+00  2.93755E+00  1.000E+00  1.000E+00  4.834E-04  0.000E+00  0.000E+00
   1    3    3     1     3    1.0000E+00 -1.1937E-04   1.0002E+00  0.000E+00  0.000E+00  0.000E+00  2.87283E+00  1.000E+00  1.000E+00  9.388E-04  0.000E+00  0.000E+00
   1    3    4     1     4    1.0002E+00 -8.9380E-05   1.0002E+00  0.000E+00  0.000E+00  0.000E+00  2.80883E+00  1.000E+00  1.000E+00  4.676E-04  0.000E+00  0.000E+00
   1    4    4     1     5    1.0002E+00 -2.4425E-04   1.0005E+00  0.000E+00  0.000E+00  0.000E+00  2.74411E+00  1.000E+00  1.000E+00  9.546E-04  0.000E+00  0.000E+00
   1    4    5     1     6    1.0005E+00 -1.4451E-04   1.0006E+00  0.000E+00  0.000E+00  0.000E+00  2.68011E+00  1.000E+00  1.000E+00  4.518E-04  0.000E+00  0.000E+00
   1    5    5     1     7    1.0006E+00 -3.7320E-04   1.0010E+00  0.000E+00  0.000E+00  0.000E+00  2.61540E+00  1.000E+00  1.000E+00  9.704E-04  0.000E+00  0.000E+00
   1    5    6     1     8    1.0010E+00 -1.9558E-04   1.0012E+00  0.000E+00  0.000E+00  0.000E+00  2.55140E+00  1.000E+00  1.000E+00  4.360E-04  0.000E+00  0.000E+00
   1    6    6     1     9    1.0012E+00 -5.0622E-04   1.0017E+00  0.000E+00  0.000E+00  0.000E+00  2.48668E+00  1.000E+00  1.000E+00  9.862E-04  0.000E+00  0.000E+00
   1    6    7     1    10    1.0017E+00 -2.4257E-04   1.0020E+00  0.000E+00  0.000E+00  0.000E+00  2.42268E+00  1.000E+00  1.000E+00  4.202E-04  0.000E+00  0.000E+00
   1    7    7     1    11    1.0020E+00 -6.4331E-04   1.0026E+00  0.000E+00  0.000E+00  0.000E+00  2.35796E+00  1.000E+00  1.000E+00  1.002E-03  0.000E+00  0.000E+00
   1    7    8     1    12    1.0026E+00 -2.8550E-04   1.0029E+00  0.000E+00  0.000E+00  0.000E+00  2.29396E+00  1.000E+00  1.000E+00  4.044E-04  0.000E+00  0.000E+00
   1    8    8     1    13    1.0029E+00 -7.8446E-04   1.0037E+00  0.000E+00  0.000E+00  0.000E+00  2.22924E+00  1.000E+00  1.000E+00  1.018E-03  0.000E+00  0.000E+00
   1    8    9     1    14    1.0037E+00 -3.2436E-04   1.0040E+00  0.000E+00  0.000E+00  0.000E+00  2.16524E+00  1.000E+00  1.000E+00  3.886E-04  0.000E+00  0.000E+00
   1    9    9     1    15    1.0040E+00 -9.2969E-04   1.0049E+00  0.000E+00  0.000E+00  0.000E+00  2.10052E+00  1.000E+00  1.000E+00  1.034E-03  0.000E+00  0.000E+00
   1    9   10     1    16    1.0049E+00 -3.5915E-04   1.0053E+00  0.000E+00  0.000E+00  0.000E+00  2.03652E+00  1.000E+00  1.000E+00  3.728E-04  0.000E+00  0.000E+00
   1   10   10     1    17    1.0053E+00 -2.1276E-04   1.0055E+00  0.000E+00  0.000E+00  0.000E+00  2.00978E+00  1.000E+00  1.000E+00  2.149E-04  0.000E+00  0.000E+00
   1   10   11     2     1    1.0055E+00 -4.6601E-04   1.0060E+00  0.000E+00  0.000E+00  0.000E+00  1.97911E+00  1.000E+00  1.000E+00  4.565E-04  0.000E+00  0.000E+00
   1   11   11     2     2    1.0060E+00 -1.0243E-03   1.0070E+00  0.000E+00  0.000E+00  0.000E+00  1.91502E+00  1.000E+00  1.000E+00  9.441E-04  0.000E+00  0.000E+00
   1   11   12     2     3    1.0070E+00 -5.2220E-04   1.0075E+00  0.000E+00  0.000E+00  0.000E+00  1.85102E+00  1.000E+00  1.000E+00  4.545E-04  0.000E+00  0.000E+00
   1   12   12     2     4    1.0075E+00 -1.1851E-03   1.0087E+00  0.000E+00  0.000E+00  0.000E+00  1.78557E+00  1.000E+00  1.000E+00  9.759E-04  0.000E+00  0.000E+00
   1   12   13     2     5    1.0087E+00 -5.4040E-04   1.0092E+00  0.000E+00  0.000E+00  0.000E+00  1.72157E+00  1.000E+00  1.000E+00  4.227E-04  0.000E+00  0.000E+00
   1   13   13     2     6    1.0092E+00 -1.3542E-03   1.0106E+00  0.000E+00  0.000E+00  0.000E+00  1.65611E+00  1.000E+00  1.000E+00  1.008E-03  0.000E+00  0.000E+00
   1   13   14     2     7    1.0106E+00 -5.5037E-04   1.0111E+00  0.000E+00  0.000E+00  0.000E+00  1.59211E+00  1.000E+00  1.000E+00  3.909E-04  0.000E+00  0.000E+00
   1   14   14     2     8    1.0111E+00 -1.5314E-03   1.0127E+00  0.000E+00  0.000E+00  0.000E+00  1.52666E+00  1.000E+00  1.000E+00  1.039E-03  0.000E+00  0.000E+00
   1   14   15     2     9    1.0127E+00 -5.5211E-04   1.0132E+00  0.000E+00  0.000E+00  0.000E+00  1.46266E+00  1.000E+00  1.000E+00  3.591E-04  0.000E+00  0.000E+00
   1   15   15     2    10    1.0132E+00 -1.7169E-03   1.0149E+00  0.000E+00  0.000E+00  0.000E+00  1.39720E+00  1.000E+00  1.000E+00  1.071E-03  0.000E+00  0.000E+00
   1   15   16     2    11    1.0149E+00 -5.4562E-04   1.0155E+00  0.000E+00  0.000E+00  0.000E+00  1.33320E+00  1.000E+00  1.000E+00  3.274E-04  0.000E+00  0.000E+00
   1   16   16     2    12    1.0155E+00 -1.9107E-03   1.0174E+00  0.000E+00  0.000E+00  0.000E+00  1.26775E+00  1.000E+00  1.000E+00  1.103E-03  0.000E+00  0.000E+00
   1   16   17     2    13    1.0174E+00 -5.3090E-04   1.0179E+00  0.000E+00  0.000E+00  0.000E+00  1.20375E+00  1.000E+00  1.000E+00  2.956E-04  0.000E+00  0.000E+00
   1   17   17     2    14    1.0179E+00 -2.1127E-03   1.0200E+00  0.000E+00  0.000E+00  0.000E+00  1.13829E+00  1.000E+00  1.000E+00  1.135E-03  0.000E+00  0.000E+00
   1   17   18     2    15    1.0200E+00 -5.0796E-04   1.0205E+00  0.000E+00  0.000E+00  0.000E+00  1.07429E+00  1.000E+00  1.000E+00  2.638E-04  0.000E+00  0.000E+00
   1   18   18     2    16    1.0205E+00 -1.3386E-03   1.0219E+00  0.000E+00  0.000E+00  0.000E+00  1.03111E+00  1.000E+00  1.000E+00  6.799E-04  0.000E+00  0.000E+00



 UBDSV3 SAVING "           GW ET" ON UNIT   9 AT TIME STEP    11, STRESS PERIOD   2
 UBDSV3 SAVING "    UZF RECHARGE" ON UNIT   9 AT TIME STEP    11, STRESS PERIOD   2
 UBDSV3 SAVING " SURFACE LEAKAGE" ON UNIT   9 AT TIME STEP    11, STRESS PERIOD   2
 UBDSV3 SAVING "       HORT+DUNN" ON UNIT   9 AT TIME STEP    11, STRESS PERIOD   2
 UBDSV3 SAVING "  STORAGE CHANGE" ON UNIT   9 AT TIME STEP    11, STRESS PERIOD   2


UNSATURATED ZONE PACKAGE VOLUMETRIC BUDGET FOR  TIME STEP    11 STRESS PERIOD    2
  ------------------------------------------------------------------------------



     CUMULATIVE VOLUMES      L**3       RATES FOR THIS TIME STEP      L**3/T
     ------------------                 ------------------------

           IN:                                      IN:
           ---                                      ---
        INFILTRATION =       0.0000E+00          INFILTRATION =       0.0000E+00

          OUT:                                     OUT:
          ----                                     ----
              UZF ET =       0.0000E+00                UZF ET =       0.0000E+00
        UZF RECHARGE =       0.0000E+00          UZF RECHARGE =       0.0000E+00

            IN - OUT =       0.0000E+00              IN - OUT =       0.0000E+00

          STORAGE:                                 STORAGE:
          --------                                 --------
      STORAGE CHANGE =       0.0000E+00        STORAGE CHANGE =       0.0000E+00

 PERCENT DISCREPANCY IS DIFFERENCE BETWEEN IN-OUT MINUS CHANGE IN STORAGE
 DIVIDED BY THE AVERAGE OF IN AND OUT TIMES 100

 PERCENT DISCREPANCY =           0.00     PERCENT DISCREPANCY =           0.00







 HEAD WILL BE SAVED ON UNIT   37 AT END OF TIME STEP   11, STRESS PERIOD    2

 DRAWDOWN WILL BE SAVED ON UNIT   38 AT END OF TIME STEP   11, STRESS PERIOD    2
1
  VOLUMETRIC BUDGET FOR ENTIRE MODEL AT END OF TIME STEP   11, STRESS PERIOD   2
  ------------------------------------------------------------------------------

     CUMULATIVE VOLUMES      L**3       RATES FOR THIS TIME STEP      L**3/T
     ------------------                 ------------------------

           IN:                                      IN:
           ---                                      ---
             STORAGE =       3.3485E-06               STORAGE =       8.9407E-08
       CONSTANT HEAD =           1.0727         CONSTANT HEAD =       2.1879E-02
      STREAM LEAKAGE =           0.0000        STREAM LEAKAGE =           0.0000
        UZF RECHARGE =           0.0000          UZF RECHARGE =           0.0000
               GW ET =           0.0000                 GW ET =           0.0000
     SURFACE LEAKAGE =           0.0000       SURFACE LEAKAGE =           0.0000

            TOTAL IN =           1.0727              TOTAL IN =       2.1879E-02

          OUT:                                     OUT:
          ----                                     ----
             STORAGE =       1.3100E-06               STORAGE =           0.0000
       CONSTANT HEAD =           0.0000         CONSTANT HEAD =           0.0000
      STREAM LEAKAGE =           1.0729        STREAM LEAKAGE =       2.1883E-02
        UZF RECHARGE =           0.0000          UZF RECHARGE =           0.0000
               GW ET =           0.0000                 GW ET =           0.0000
     SURFACE LEAKAGE =           0.0000       SURFACE LEAKAGE =           0.0000

           TOTAL OUT =           1.0729             TOTAL OUT =       2.1883E-02

            IN - OUT =      -2.2888E-04              IN - OUT =      -3.7402E-06

 PERCENT DISCREPANCY =          -0.02     PERCENT DISCREPANCY =          -0.02






         TIME SUMMARY AT END OF TIME STEP   11 IN STRESS PERIOD    2
                    SECONDS     MINUTES      HOURS       DAYS        YEARS
                    -----------------------------------------------------------
   TIME STEP LENGTH  11.739     0.19564     3.26073E-03 1.35864E-04 3.71974E-07
 STRESS PERIOD TIME  48.029     0.80048     1.33414E-02 5.55892E-04 1.52195E-06
         TOTAL TIME  49.029     0.81715     1.36192E-02 5.67466E-04 1.55364E-06
1
 
 SOLVING FOR HEAD 
     1 CALLS TO PCG ROUTINE FOR TIME STEP    12 IN STRESS PERIOD    2
     1 TOTAL ITERATIONS

 MAXIMUM HEAD CHANGE FOR EACH ITERATION (1 INDICATES THE FIRST INNER ITERATION):

    HEAD CHANGE    HEAD CHANGE    HEAD CHANGE    HEAD CHANGE    HEAD CHANGE 
   LAYER,ROW,COL  LAYER,ROW,COL  LAYER,ROW,COL  LAYER,ROW,COL  LAYER,ROW,COL
 ---------------------------------------------------------------------------
  1 -0.1769E-08
   (  2,  1, 19)

 MAXIMUM RESIDUAL FOR EACH ITERATION (1 INDICATES THE FIRST INNER ITERATION):

    RESIDUAL       RESIDUAL       RESIDUAL       RESIDUAL       RESIDUAL    
   LAYER,ROW,COL  LAYER,ROW,COL  LAYER,ROW,COL  LAYER,ROW,COL  LAYER,ROW,COL
 ---------------------------------------------------------------------------
  1 -0.6336E-05
   (  2,  2,  2)



 OUTPUT CONTROL FOR STRESS PERIOD    2   TIME STEP   12
    SAVE HEAD FOR ALL LAYERS
    SAVE DRAWDOWN FOR ALL LAYERS
    SAVE BUDGET
    PRINT BUDGET
 UBDSV1 SAVING "         STORAGE" ON UNIT   9 AT TIME STEP    12, STRESS PERIOD   2
 UBDSV2 SAVING "   CONSTANT HEAD" ON UNIT   9 AT TIME STEP    12, STRESS PERIOD   2
 UBDSV1 SAVING "FLOW RIGHT FACE " ON UNIT   9 AT TIME STEP    12, STRESS PERIOD   2
 UBDSV1 SAVING "FLOW FRONT FACE " ON UNIT   9 AT TIME STEP    12, STRESS PERIOD   2
 UBDSV1 SAVING "FLOW LOWER FACE " ON UNIT   9 AT TIME STEP    12, STRESS PERIOD   2
 UBDSV4 SAVING "  STREAM LEAKAGE" ON UNIT   9 AT TIME STEP    12, STRESS PERIOD   2



 STREAM LISTING     PERIOD      2   STEP       12

 LAYER ROW COL. STREAM  RCH.   FLOW INTO    STREAM     FLOW OUT OF   OVRLND.    DIRECT     STREAM      STREAM      STREAM     STREAM  STREAMBED   FLOW TO   CHNG. UNSAT. 
                SEG.NO.  NO.   STRM. RCH.    LOSS       STRM. RCH.   RUNOFF     PRECIP       ET         HEAD        DEPTH      WIDTH  CONDCTNC.   WAT. TAB.

   1    2    2     1     1    1.0000E+00 -8.9848E-06   1.0000E+00  0.000E+00  0.000E+00  0.000E+00  2.97978E+00  1.000E+00  1.000E+00  4.444E-04  0.000E+00  0.000E+00
   1    2    3     1     2    1.0000E+00 -3.0181E-05   1.0000E+00  0.000E+00  0.000E+00  0.000E+00  2.93755E+00  1.000E+00  1.000E+00  4.834E-04  0.000E+00  0.000E+00
   1    3    3     1     3    1.0000E+00 -1.1937E-04   1.0002E+00  0.000E+00  0.000E+00  0.000E+00  2.87283E+00  1.000E+00  1.000E+00  9.388E-04  0.000E+00  0.000E+00
   1    3    4     1     4    1.0002E+00 -8.9380E-05   1.0002E+00  0.000E+00  0.000E+00  0.000E+00  2.80883E+00  1.000E+00  1.000E+00  4.676E-04  0.000E+00  0.000E+00
   1    4    4     1     5    1.0002E+00 -2.4425E-04   1.0005E+00  0.000E+00  0.000E+00  0.000E+00  2.74411E+00  1.000E+00  1.000E+00  9.546E-04  0.000E+00  0.000E+00
   1    4    5     1     6    1.0005E+00 -1.4451E-04   1.0006E+00  0.000E+00  0.000E+00  0.000E+00  2.68011E+00  1.000E+00  1.000E+00  4.518E-04  0.000E+00  0.000E+00
   1    5    5     1     7    1.0006E+00 -3.7320E-04   1.0010E+00  0.000E+00  0.000E+00  0.000E+00  2.61540E+00  1.000E+00  1.000E+00  9.704E-04  0.000E+00  0.000E+00
   1    5    6     1     8    1.0010E+00 -1.9558E-04   1.0012E+00  0.000E+00  0.000E+00  0.000E+00  2.55140E+00  1.000E+00  1.000E+00  4.360E-04  0.000E+00  0.000E+00
   1    6    6     1     9    1.0012E+00 -5.0622E-04   1.0017E+00  0.000E+00  0.000E+00  0.000E+00  2.48668E+00  1.000E+00  1.000E+00  9.862E-04  0.000E+00  0.000E+00
   1    6    7     1    10    1.0017E+00 -2.4257E-04   1.0020E+00  0.000E+00  0.000E+00  0.000E+00  2.42268E+00  1.000E+00  1.000E+00  4.202E-04  0.000E+00  0.000E+00
   1    7    7     1    11    1.0020E+00 -6.4331E-04   1.0026E+00  0.000E+00  0.000E+00  0.000E+00  2.35796E+00  1.000E+00  1.000E+00  1.002E-03  0.000E+00  0.000E+00
   1    7    8     1    12    1.0026E+00 -2.8550E-04   1.0029E+00  0.000E+00  0.000E+00  0.000E+00  2.29396E+00  1.000E+00  1.000E+00  4.044E-04  0.000E+00  0.000E+00
   1    8    8     1    13    1.0029E+00 -7.8446E-04   1.0037E+00  0.000E+00  0.000E+00  0.000E+00  2.22924E+00  1.000E+00  1.000E+00  1.018E-03  0.000E+00  0.000E+00
   1    8    9     1    14    1.0037E+00 -3.2436E-04   1.0040E+00  0.000E+00  0.000E+00  0.000E+00  2.16524E+00  1.000E+00  1.000E+00  3.886E-04  0.000E+00  0.000E+00
   1    9    9     1    15    1.0040E+00 -9.2969E-04   1.0049E+00  0.000E+00  0.000E+00  0.000E+00  2.10052E+00  1.000E+00  1.000E+00  1.034E-03  0.000E+00  0.000E+00
   1    9   10     1    16    1.0049E+00 -3.5915E-04   1.0053E+00  0.000E+00  0.000E+00  0.000E+00  2.03652E+00  1.000E+00  1.000E+00  3.728E-04  0.000E+00  0.000E+00
   1   10   10     1    17    1.0053E+00 -2.1276E-04   1.0055E+00  0.000E+00  0.000E+00  0.000E+00  2.00978E+00  1.000E+00  1.000E+00  2.149E-04  0.000E+00  0.000E+00
   1   10   11     2     1    1.0055E+00 -4.6601E-04   1.0060E+00  0.000E+00  0.000E+00  0.000E+00  1.97911E+00  1.000E+00  1.000E+00  4.565E-04  0.000E+00  0.000E+00
   1   11   11     2     2    1.0060E+00 -1.0243E-03   1.0070E+00  0.000E+00  0.000E+00  0.000E+00  1.91502E+00  1.000E+00  1.000E+00  9.441E-04  0.000E+00  0.000E+00
   1   11   12     2     3    1.0070E+00 -5.2220E-04   1.0075E+00  0.000E+00  0.000E+00  0.000E+00  1.85102E+00  1.000E+00  1.000E+00  4.545E-04  0.000E+00  0.000E+00
   1   12   12     2     4    1.0075E+00 -1.1851E-03   1.0087E+00  0.000E+00  0.000E+00  0.000E+00  1.78557E+00  1.000E+00  1.000E+00  9.759E-04  0.000E+00  0.000E+00
   1   12   13     2     5    1.0087E+00 -5.4040E-04   1.0092E+00  0.000E+00  0.000E+00  0.000E+00  1.72157E+00  1.000E+00  1.000E+00  4.227E-04  0.000E+00  0.000E+00
   1   13   13     2     6    1.0092E+00 -1.3542E-03   1.0106E+00  0.000E+00  0.000E+00  0.000E+00  1.65611E+00  1.000E+00  1.000E+00  1.008E-03  0.000E+00  0.000E+00
   1   13   14     2     7    1.0106E+00 -5.5037E-04   1.0111E+00  0.000E+00  0.000E+00  0.000E+00  1.59211E+00  1.000E+00  1.000E+00  3.909E-04  0.000E+00  0.000E+00
   1   14   14     2     8    1.0111E+00 -1.5314E-03   1.0127E+00  0.000E+00  0.000E+00  0.000E+00  1.52666E+00  1.000E+00  1.000E+00  1.039E-03  0.000E+00  0.000E+00
   1   14   15     2     9    1.0127E+00 -5.5211E-04   1.0132E+00  0.000E+00  0.000E+00  0.000E+00  1.46266E+00  1.000E+00  1.000E+00  3.591E-04  0.000E+00  0.000E+00
   1   15   15     2    10    1.0132E+00 -1.7169E-03   1.0149E+00  0.000E+00  0.000E+00  0.000E+00  1.39720E+00  1.000E+00  1.000E+00  1.071E-03  0.000E+00  0.000E+00
   1   15   16     2    11    1.0149E+00 -5.4562E-04   1.0155E+00  0.000E+00  0.000E+00  0.000E+00  1.33320E+00  1.000E+00  1.000E+00  3.274E-04  0.000E+00  0.000E+00
   1   16   16     2    12    1.0155E+00 -1.9107E-03   1.0174E+00  0.000E+00  0.000E+00  0.000E+00  1.26775E+00  1.000E+00  1.000E+00  1.103E-03  0.000E+00  0.000E+00
   1   16   17     2    13    1.0174E+00 -5.3090E-04   1.0179E+00  0.000E+00  0.000E+00  0.000E+00  1.20375E+00  1.000E+00  1.000E+00  2.956E-04  0.000E+00  0.000E+00
   1   17   17     2    14    1.0179E+00 -2.1127E-03   1.0200E+00  0.000E+00  0.000E+00  0.000E+00  1.13829E+00  1.000E+00  1.000E+00  1.135E-03  0.000E+00  0.000E+00
   1   17   18     2    15    1.0200E+00 -5.0796E-04   1.0205E+00  0.000E+00  0.000E+00  0.000E+00  1.07429E+00  1.000E+00  1.000E+00  2.638E-04  0.000E+00  0.000E+00
   1   18   18     2    16    1.0205E+00 -1.3386E-03   1.0219E+00  0.000E+00  0.000E+00  0.000E+00  1.03111E+00  1.000E+00  1.000E+00  6.799E-04  0.000E+00  0.000E+00



 UBDSV3 SAVING "           GW ET" ON UNIT   9 AT TIME STEP    12, STRESS PERIOD   2
 UBDSV3 SAVING "    UZF RECHARGE" ON UNIT   9 AT TIME STEP    12, STRESS PERIOD   2
 UBDSV3 SAVING " SURFACE LEAKAGE" ON UNIT   9 AT TIME STEP    12, STRESS PERIOD   2
 UBDSV3 SAVING "       HORT+DUNN" ON UNIT   9 AT TIME STEP    12, STRESS PERIOD   2
 UBDSV3 SAVING "  STORAGE CHANGE" ON UNIT   9 AT TIME STEP    12, STRESS PERIOD   2


UNSATURATED ZONE PACKAGE VOLUMETRIC BUDGET FOR  TIME STEP    12 STRESS PERIOD    2
  ------------------------------------------------------------------------------



     CUMULATIVE VOLUMES      L**3       RATES FOR THIS TIME STEP      L**3/T
     ------------------                 ------------------------

           IN:                                      IN:
           ---                                      ---
        INFILTRATION =       0.0000E+00          INFILTRATION =       0.0000E+00

          OUT:                                     OUT:
          ----                                     ----
              UZF ET =       0.0000E+00                UZF ET =       0.0000E+00
        UZF RECHARGE =       0.0000E+00          UZF RECHARGE =       0.0000E+00

            IN - OUT =       0.0000E+00              IN - OUT =       0.0000E+00

          STORAGE:                                 STORAGE:
          --------                                 --------
      STORAGE CHANGE =       0.0000E+00        STORAGE CHANGE =       0.0000E+00

 PERCENT DISCREPANCY IS DIFFERENCE BETWEEN IN-OUT MINUS CHANGE IN STORAGE
 DIVIDED BY THE AVERAGE OF IN AND OUT TIMES 100

 PERCENT DISCREPANCY =           0.00     PERCENT DISCREPANCY =           0.00







 HEAD WILL BE SAVED ON UNIT   37 AT END OF TIME STEP   12, STRESS PERIOD    2

 DRAWDOWN WILL BE SAVED ON UNIT   38 AT END OF TIME STEP   12, STRESS PERIOD    2
1
  VOLUMETRIC BUDGET FOR ENTIRE MODEL AT END OF TIME STEP   12, STRESS PERIOD   2
  ------------------------------------------------------------------------------

     CUMULATIVE VOLUMES      L**3       RATES FOR THIS TIME STEP      L**3/T
     ------------------                 ------------------------

           IN:                                      IN:
           ---                                      ---
             STORAGE =       3.8033E-06               STORAGE =       2.9802E-08
       CONSTANT HEAD =           1.4066         CONSTANT HEAD =       2.1879E-02
      STREAM LEAKAGE =           0.0000        STREAM LEAKAGE =           0.0000
        UZF RECHARGE =           0.0000          UZF RECHARGE =           0.0000
               GW ET =           0.0000                 GW ET =           0.0000
     SURFACE LEAKAGE =           0.0000       SURFACE LEAKAGE =           0.0000

            TOTAL IN =           1.4066              TOTAL IN =       2.1879E-02

          OUT:                                     OUT:
          ----                                     ----
             STORAGE =       1.3100E-06               STORAGE =           0.0000
       CONSTANT HEAD =           0.0000         CONSTANT HEAD =           0.0000
      STREAM LEAKAGE =           1.4068        STREAM LEAKAGE =       2.1883E-02
        UZF RECHARGE =           0.0000          UZF RECHARGE =           0.0000
               GW ET =           0.0000                 GW ET =           0.0000
     SURFACE LEAKAGE =           0.0000       SURFACE LEAKAGE =           0.0000

           TOTAL OUT =           1.4068             TOTAL OUT =       2.1883E-02

            IN - OUT =      -2.8384E-04              IN - OUT =      -3.6005E-06

 PERCENT DISCREPANCY =          -0.02     PERCENT DISCREPANCY =          -0.02






         TIME SUMMARY AT END OF TIME STEP   12 IN STRESS PERIOD    2
                    SECONDS     MINUTES      HOURS       DAYS        YEARS
                    -----------------------------------------------------------
   TIME STEP LENGTH  15.260     0.25434     4.23895E-03 1.76623E-04 4.83567E-07
 STRESS PERIOD TIME  63.289      1.0548     1.75803E-02 7.32514E-04 2.00551E-06
         TOTAL TIME  64.289      1.0715     1.78581E-02 7.44088E-04 2.03720E-06
1
 
 SOLVING FOR HEAD 
     1 CALLS TO PCG ROUTINE FOR TIME STEP    13 IN STRESS PERIOD    2
     1 TOTAL ITERATIONS

 MAXIMUM HEAD CHANGE FOR EACH ITERATION (1 INDICATES THE FIRST INNER ITERATION):

    HEAD CHANGE    HEAD CHANGE    HEAD CHANGE    HEAD CHANGE    HEAD CHANGE 
   LAYER,ROW,COL  LAYER,ROW,COL  LAYER,ROW,COL  LAYER,ROW,COL  LAYER,ROW,COL
 ---------------------------------------------------------------------------
  1  0.1346E-08
   (  1,  1, 20)

 MAXIMUM RESIDUAL FOR EACH ITERATION (1 INDICATES THE FIRST INNER ITERATION):

    RESIDUAL       RESIDUAL       RESIDUAL       RESIDUAL       RESIDUAL    
   LAYER,ROW,COL  LAYER,ROW,COL  LAYER,ROW,COL  LAYER,ROW,COL  LAYER,ROW,COL
 ---------------------------------------------------------------------------
  1 -0.5748E-05
   (  2,  2,  2)



 OUTPUT CONTROL FOR STRESS PERIOD    2   TIME STEP   13
    SAVE HEAD FOR ALL LAYERS
    SAVE DRAWDOWN FOR ALL LAYERS
    SAVE BUDGET
    PRINT BUDGET
 UBDSV1 SAVING "         STORAGE" ON UNIT   9 AT TIME STEP    13, STRESS PERIOD   2
 UBDSV2 SAVING "   CONSTANT HEAD" ON UNIT   9 AT TIME STEP    13, STRESS PERIOD   2
 UBDSV1 SAVING "FLOW RIGHT FACE " ON UNIT   9 AT TIME STEP    13, STRESS PERIOD   2
 UBDSV1 SAVING "FLOW FRONT FACE " ON UNIT   9 AT TIME STEP    13, STRESS PERIOD   2
 UBDSV1 SAVING "FLOW LOWER FACE " ON UNIT   9 AT TIME STEP    13, STRESS PERIOD   2
 UBDSV4 SAVING "  STREAM LEAKAGE" ON UNIT   9 AT TIME STEP    13, STRESS PERIOD   2



 STREAM LISTING     PERIOD      2   STEP       13

 LAYER ROW COL. STREAM  RCH.   FLOW INTO    STREAM     FLOW OUT OF   OVRLND.    DIRECT     STREAM      STREAM      STREAM     STREAM  STREAMBED   FLOW TO   CHNG. UNSAT. 
                SEG.NO.  NO.   STRM. RCH.    LOSS       STRM. RCH.   RUNOFF     PRECIP       ET         HEAD        DEPTH      WIDTH  CONDCTNC.   WAT. TAB.

   1    2    2     1     1    1.0000E+00 -8.9848E-06   1.0000E+00  0.000E+00  0.000E+00  0.000E+00  2.97978E+00  1.000E+00  1.000E+00  4.444E-04  0.000E+00  0.000E+00
   1    2    3     1     2    1.0000E+00 -3.0181E-05   1.0000E+00  0.000E+00  0.000E+00  0.000E+00  2.93755E+00  1.000E+00  1.000E+00  4.834E-04  0.000E+00  0.000E+00
   1    3    3     1     3    1.0000E+00 -1.1937E-04   1.0002E+00  0.000E+00  0.000E+00  0.000E+00  2.87283E+00  1.000E+00  1.000E+00  9.388E-04  0.000E+00  0.000E+00
   1    3    4     1     4    1.0002E+00 -8.9380E-05   1.0002E+00  0.000E+00  0.000E+00  0.000E+00  2.80883E+00  1.000E+00  1.000E+00  4.676E-04  0.000E+00  0.000E+00
   1    4    4     1     5    1.0002E+00 -2.4425E-04   1.0005E+00  0.000E+00  0.000E+00  0.000E+00  2.74411E+00  1.000E+00  1.000E+00  9.546E-04  0.000E+00  0.000E+00
   1    4    5     1     6    1.0005E+00 -1.4451E-04   1.0006E+00  0.000E+00  0.000E+00  0.000E+00  2.68011E+00  1.000E+00  1.000E+00  4.518E-04  0.000E+00  0.000E+00
   1    5    5     1     7    1.0006E+00 -3.7320E-04   1.0010E+00  0.000E+00  0.000E+00  0.000E+00  2.61540E+00  1.000E+00  1.000E+00  9.704E-04  0.000E+00  0.000E+00
   1    5    6     1     8    1.0010E+00 -1.9558E-04   1.0012E+00  0.000E+00  0.000E+00  0.000E+00  2.55140E+00  1.000E+00  1.000E+00  4.360E-04  0.000E+00  0.000E+00
   1    6    6     1     9    1.0012E+00 -5.0622E-04   1.0017E+00  0.000E+00  0.000E+00  0.000E+00  2.48668E+00  1.000E+00  1.000E+00  9.862E-04  0.000E+00  0.000E+00
   1    6    7     1    10    1.0017E+00 -2.4257E-04   1.0020E+00  0.000E+00  0.000E+00  0.000E+00  2.42268E+00  1.000E+00  1.000E+00  4.202E-04  0.000E+00  0.000E+00
   1    7    7     1    11    1.0020E+00 -6.4331E-04   1.0026E+00  0.000E+00  0.000E+00  0.000E+00  2.35796E+00  1.000E+00  1.000E+00  1.002E-03  0.000E+00  0.000E+00
   1    7    8     1    12    1.0026E+00 -2.8550E-04   1.0029E+00  0.000E+00  0.000E+00  0.000E+00  2.29396E+00  1.000E+00  1.000E+00  4.044E-04  0.000E+00  0.000E+00
   1    8    8     1    13    1.0029E+00 -7.8446E-04   1.0037E+00  0.000E+00  0.000E+00  0.000E+00  2.22924E+00  1.000E+00  1.000E+00  1.018E-03  0.000E+00  0.000E+00
   1    8    9     1    14    1.0037E+00 -3.2436E-04   1.0040E+00  0.000E+00  0.000E+00  0.000E+00  2.16524E+00  1.000E+00  1.000E+00  3.886E-04  0.000E+00  0.000E+00
   1    9    9     1    15    1.0040E+00 -9.2969E-04   1.0049E+00  0.000E+00  0.000E+00  0.000E+00  2.10052E+00  1.000E+00  1.000E+00  1.034E-03  0.000E+00  0.000E+00
   1    9   10     1    16    1.0049E+00 -3.5915E-04   1.0053E+00  0.000E+00  0.000E+00  0.000E+00  2.03652E+00  1.000E+00  1.000E+00  3.728E-04  0.000E+00  0.000E+00
   1   10   10     1    17    1.0053E+00 -2.1276E-04   1.0055E+00  0.000E+00  0.000E+00  0.000E+00  2.00978E+00  1.000E+00  1.000E+00  2.149E-04  0.000E+00  0.000E+00
   1   10   11     2     1    1.0055E+00 -4.6601E-04   1.0060E+00  0.000E+00  0.000E+00  0.000E+00  1.97911E+00  1.000E+00  1.000E+00  4.565E-04  0.000E+00  0.000E+00
   1   11   11     2     2    1.0060E+00 -1.0243E-03   1.0070E+00  0.000E+00  0.000E+00  0.000E+00  1.91502E+00  1.000E+00  1.000E+00  9.441E-04  0.000E+00  0.000E+00
   1   11   12     2     3    1.0070E+00 -5.2220E-04   1.0075E+00  0.000E+00  0.000E+00  0.000E+00  1.85102E+00  1.000E+00  1.000E+00  4.545E-04  0.000E+00  0.000E+00
   1   12   12     2     4    1.0075E+00 -1.1851E-03   1.0087E+00  0.000E+00  0.000E+00  0.000E+00  1.78557E+00  1.000E+00  1.000E+00  9.759E-04  0.000E+00  0.000E+00
   1   12   13     2     5    1.0087E+00 -5.4040E-04   1.0092E+00  0.000E+00  0.000E+00  0.000E+00  1.72157E+00  1.000E+00  1.000E+00  4.227E-04  0.000E+00  0.000E+00
   1   13   13     2     6    1.0092E+00 -1.3542E-03   1.0106E+00  0.000E+00  0.000E+00  0.000E+00  1.65611E+00  1.000E+00  1.000E+00  1.008E-03  0.000E+00  0.000E+00
   1   13   14     2     7    1.0106E+00 -5.5037E-04   1.0111E+00  0.000E+00  0.000E+00  0.000E+00  1.59211E+00  1.000E+00  1.000E+00  3.909E-04  0.000E+00  0.000E+00
   1   14   14     2     8    1.0111E+00 -1.5314E-03   1.0127E+00  0.000E+00  0.000E+00  0.000E+00  1.52666E+00  1.000E+00  1.000E+00  1.039E-03  0.000E+00  0.000E+00
   1   14   15     2     9    1.0127E+00 -5.5211E-04   1.0132E+00  0.000E+00  0.000E+00  0.000E+00  1.46266E+00  1.000E+00  1.000E+00  3.591E-04  0.000E+00  0.000E+00
   1   15   15     2    10    1.0132E+00 -1.7169E-03   1.0149E+00  0.000E+00  0.000E+00  0.000E+00  1.39720E+00  1.000E+00  1.000E+00  1.071E-03  0.000E+00  0.000E+00
   1   15   16     2    11    1.0149E+00 -5.4562E-04   1.0155E+00  0.000E+00  0.000E+00  0.000E+00  1.33320E+00  1.000E+00  1.000E+00  3.274E-04  0.000E+00  0.000E+00
   1   16   16     2    12    1.0155E+00 -1.9107E-03   1.0174E+00  0.000E+00  0.000E+00  0.000E+00  1.26775E+00  1.000E+00  1.000E+00  1.103E-03  0.000E+00  0.000E+00
   1   16   17     2    13    1.0174E+00 -5.3090E-04   1.0179E+00  0.000E+00  0.000E+00  0.000E+00  1.20375E+00  1.000E+00  1.000E+00  2.956E-04  0.000E+00  0.000E+00
   1   17   17     2    14    1.0179E+00 -2.1127E-03   1.0200E+00  0.000E+00  0.000E+00  0.000E+00  1.13829E+00  1.000E+00  1.000E+00  1.135E-03  0.000E+00  0.000E+00
   1   17   18     2    15    1.0200E+00 -5.0796E-04   1.0205E+00  0.000E+00  0.000E+00  0.000E+00  1.07429E+00  1.000E+00  1.000E+00  2.638E-04  0.000E+00  0.000E+00
   1   18   18     2    16    1.0205E+00 -1.3386E-03   1.0219E+00  0.000E+00  0.000E+00  0.000E+00  1.03111E+00  1.000E+00  1.000E+00  6.799E-04  0.000E+00  0.000E+00



 UBDSV3 SAVING "           GW ET" ON UNIT   9 AT TIME STEP    13, STRESS PERIOD   2
 UBDSV3 SAVING "    UZF RECHARGE" ON UNIT   9 AT TIME STEP    13, STRESS PERIOD   2
 UBDSV3 SAVING " SURFACE LEAKAGE" ON UNIT   9 AT TIME STEP    13, STRESS PERIOD   2
 UBDSV3 SAVING "       HORT+DUNN" ON UNIT   9 AT TIME STEP    13, STRESS PERIOD   2
 UBDSV3 SAVING "  STORAGE CHANGE" ON UNIT   9 AT TIME STEP    13, STRESS PERIOD   2


UNSATURATED ZONE PACKAGE VOLUMETRIC BUDGET FOR  TIME STEP    13 STRESS PERIOD    2
  ------------------------------------------------------------------------------



     CUMULATIVE VOLUMES      L**3       RATES FOR THIS TIME STEP      L**3/T
     ------------------                 ------------------------

           IN:                                      IN:
           ---                                      ---
        INFILTRATION =       0.0000E+00          INFILTRATION =       0.0000E+00

          OUT:                                     OUT:
          ----                                     ----
              UZF ET =       0.0000E+00                UZF ET =       0.0000E+00
        UZF RECHARGE =       0.0000E+00          UZF RECHARGE =       0.0000E+00

            IN - OUT =       0.0000E+00              IN - OUT =       0.0000E+00

          STORAGE:                                 STORAGE:
          --------                                 --------
      STORAGE CHANGE =       0.0000E+00        STORAGE CHANGE =       0.0000E+00

 PERCENT DISCREPANCY IS DIFFERENCE BETWEEN IN-OUT MINUS CHANGE IN STORAGE
 DIVIDED BY THE AVERAGE OF IN AND OUT TIMES 100

 PERCENT DISCREPANCY =           0.00     PERCENT DISCREPANCY =           0.00







 HEAD WILL BE SAVED ON UNIT   37 AT END OF TIME STEP   13, STRESS PERIOD    2

 DRAWDOWN WILL BE SAVED ON UNIT   38 AT END OF TIME STEP   13, STRESS PERIOD    2
1
  VOLUMETRIC BUDGET FOR ENTIRE MODEL AT END OF TIME STEP   13, STRESS PERIOD   2
  ------------------------------------------------------------------------------

     CUMULATIVE VOLUMES      L**3       RATES FOR THIS TIME STEP      L**3/T
     ------------------                 ------------------------

           IN:                                      IN:
           ---                                      ---
             STORAGE =       3.8033E-06               STORAGE =           0.0000
       CONSTANT HEAD =           1.8406         CONSTANT HEAD =       2.1880E-02
      STREAM LEAKAGE =           0.0000        STREAM LEAKAGE =           0.0000
        UZF RECHARGE =           0.0000          UZF RECHARGE =           0.0000
               GW ET =           0.0000                 GW ET =           0.0000
     SURFACE LEAKAGE =           0.0000       SURFACE LEAKAGE =           0.0000

            TOTAL IN =           1.8406              TOTAL IN =       2.1880E-02

          OUT:                                     OUT:
          ----                                     ----
             STORAGE =       1.3100E-06               STORAGE =           0.0000
       CONSTANT HEAD =           0.0000         CONSTANT HEAD =           0.0000
      STREAM LEAKAGE =           1.8410        STREAM LEAKAGE =       2.1883E-02
        UZF RECHARGE =           0.0000          UZF RECHARGE =           0.0000
               GW ET =           0.0000                 GW ET =           0.0000
     SURFACE LEAKAGE =           0.0000       SURFACE LEAKAGE =           0.0000

           TOTAL OUT =           1.8410             TOTAL OUT =       2.1883E-02

            IN - OUT =      -3.5107E-04              IN - OUT =      -3.3882E-06

 PERCENT DISCREPANCY =          -0.02     PERCENT DISCREPANCY =          -0.02






         TIME SUMMARY AT END OF TIME STEP   13 IN STRESS PERIOD    2
                    SECONDS     MINUTES      HOURS       DAYS        YEARS
                    -----------------------------------------------------------
   TIME STEP LENGTH  19.838     0.33064     5.51063E-03 2.29610E-04 6.28637E-07
 STRESS PERIOD TIME  83.128      1.3855     2.30910E-02 9.62124E-04 2.63415E-06
         TOTAL TIME  84.127      1.4021     2.33687E-02 9.73698E-04 2.66584E-06
1
 
 SOLVING FOR HEAD 
     1 CALLS TO PCG ROUTINE FOR TIME STEP    14 IN STRESS PERIOD    2
     1 TOTAL ITERATIONS

 MAXIMUM HEAD CHANGE FOR EACH ITERATION (1 INDICATES THE FIRST INNER ITERATION):

    HEAD CHANGE    HEAD CHANGE    HEAD CHANGE    HEAD CHANGE    HEAD CHANGE 
   LAYER,ROW,COL  LAYER,ROW,COL  LAYER,ROW,COL  LAYER,ROW,COL  LAYER,ROW,COL
 ---------------------------------------------------------------------------
  1 -0.1396E-08
   (  2,  1, 19)

 MAXIMUM RESIDUAL FOR EACH ITERATION (1 INDICATES THE FIRST INNER ITERATION):

    RESIDUAL       RESIDUAL       RESIDUAL       RESIDUAL       RESIDUAL    
   LAYER,ROW,COL  LAYER,ROW,COL  LAYER,ROW,COL  LAYER,ROW,COL  LAYER,ROW,COL
 ---------------------------------------------------------------------------
  1 -0.5265E-05
   (  2,  2,  2)



 OUTPUT CONTROL FOR STRESS PERIOD    2   TIME STEP   14
    SAVE HEAD FOR ALL LAYERS
    SAVE DRAWDOWN FOR ALL LAYERS
    SAVE BUDGET
    PRINT BUDGET
 UBDSV1 SAVING "         STORAGE" ON UNIT   9 AT TIME STEP    14, STRESS PERIOD   2
 UBDSV2 SAVING "   CONSTANT HEAD" ON UNIT   9 AT TIME STEP    14, STRESS PERIOD   2
 UBDSV1 SAVING "FLOW RIGHT FACE " ON UNIT   9 AT TIME STEP    14, STRESS PERIOD   2
 UBDSV1 SAVING "FLOW FRONT FACE " ON UNIT   9 AT TIME STEP    14, STRESS PERIOD   2
 UBDSV1 SAVING "FLOW LOWER FACE " ON UNIT   9 AT TIME STEP    14, STRESS PERIOD   2
 UBDSV4 SAVING "  STREAM LEAKAGE" ON UNIT   9 AT TIME STEP    14, STRESS PERIOD   2



 STREAM LISTING     PERIOD      2   STEP       14

 LAYER ROW COL. STREAM  RCH.   FLOW INTO    STREAM     FLOW OUT OF   OVRLND.    DIRECT     STREAM      STREAM      STREAM     STREAM  STREAMBED   FLOW TO   CHNG. UNSAT. 
                SEG.NO.  NO.   STRM. RCH.    LOSS       STRM. RCH.   RUNOFF     PRECIP       ET         HEAD        DEPTH      WIDTH  CONDCTNC.   WAT. TAB.

   1    2    2     1     1    1.0000E+00 -8.9848E-06   1.0000E+00  0.000E+00  0.000E+00  0.000E+00  2.97978E+00  1.000E+00  1.000E+00  4.444E-04  0.000E+00  0.000E+00
   1    2    3     1     2    1.0000E+00 -3.0181E-05   1.0000E+00  0.000E+00  0.000E+00  0.000E+00  2.93755E+00  1.000E+00  1.000E+00  4.834E-04  0.000E+00  0.000E+00
   1    3    3     1     3    1.0000E+00 -1.1937E-04   1.0002E+00  0.000E+00  0.000E+00  0.000E+00  2.87283E+00  1.000E+00  1.000E+00  9.388E-04  0.000E+00  0.000E+00
   1    3    4     1     4    1.0002E+00 -8.9380E-05   1.0002E+00  0.000E+00  0.000E+00  0.000E+00  2.80883E+00  1.000E+00  1.000E+00  4.676E-04  0.000E+00  0.000E+00
   1    4    4     1     5    1.0002E+00 -2.4425E-04   1.0005E+00  0.000E+00  0.000E+00  0.000E+00  2.74411E+00  1.000E+00  1.000E+00  9.546E-04  0.000E+00  0.000E+00
   1    4    5     1     6    1.0005E+00 -1.4451E-04   1.0006E+00  0.000E+00  0.000E+00  0.000E+00  2.68011E+00  1.000E+00  1.000E+00  4.518E-04  0.000E+00  0.000E+00
   1    5    5     1     7    1.0006E+00 -3.7320E-04   1.0010E+00  0.000E+00  0.000E+00  0.000E+00  2.61540E+00  1.000E+00  1.000E+00  9.704E-04  0.000E+00  0.000E+00
   1    5    6     1     8    1.0010E+00 -1.9558E-04   1.0012E+00  0.000E+00  0.000E+00  0.000E+00  2.55140E+00  1.000E+00  1.000E+00  4.360E-04  0.000E+00  0.000E+00
   1    6    6     1     9    1.0012E+00 -5.0622E-04   1.0017E+00  0.000E+00  0.000E+00  0.000E+00  2.48668E+00  1.000E+00  1.000E+00  9.862E-04  0.000E+00  0.000E+00
   1    6    7     1    10    1.0017E+00 -2.4257E-04   1.0020E+00  0.000E+00  0.000E+00  0.000E+00  2.42268E+00  1.000E+00  1.000E+00  4.202E-04  0.000E+00  0.000E+00
   1    7    7     1    11    1.0020E+00 -6.4331E-04   1.0026E+00  0.000E+00  0.000E+00  0.000E+00  2.35796E+00  1.000E+00  1.000E+00  1.002E-03  0.000E+00  0.000E+00
   1    7    8     1    12    1.0026E+00 -2.8550E-04   1.0029E+00  0.000E+00  0.000E+00  0.000E+00  2.29396E+00  1.000E+00  1.000E+00  4.044E-04  0.000E+00  0.000E+00
   1    8    8     1    13    1.0029E+00 -7.8446E-04   1.0037E+00  0.000E+00  0.000E+00  0.000E+00  2.22924E+00  1.000E+00  1.000E+00  1.018E-03  0.000E+00  0.000E+00
   1    8    9     1    14    1.0037E+00 -3.2436E-04   1.0040E+00  0.000E+00  0.000E+00  0.000E+00  2.16524E+00  1.000E+00  1.000E+00  3.886E-04  0.000E+00  0.000E+00
   1    9    9     1    15    1.0040E+00 -9.2969E-04   1.0049E+00  0.000E+00  0.000E+00  0.000E+00  2.10052E+00  1.000E+00  1.000E+00  1.034E-03  0.000E+00  0.000E+00
   1    9   10     1    16    1.0049E+00 -3.5915E-04   1.0053E+00  0.000E+00  0.000E+00  0.000E+00  2.03652E+00  1.000E+00  1.000E+00  3.728E-04  0.000E+00  0.000E+00
   1   10   10     1    17    1.0053E+00 -2.1276E-04   1.0055E+00  0.000E+00  0.000E+00  0.000E+00  2.00978E+00  1.000E+00  1.000E+00  2.149E-04  0.000E+00  0.000E+00
   1   10   11     2     1    1.0055E+00 -4.6601E-04   1.0060E+00  0.000E+00  0.000E+00  0.000E+00  1.97911E+00  1.000E+00  1.000E+00  4.565E-04  0.000E+00  0.000E+00
   1   11   11     2     2    1.0060E+00 -1.0243E-03   1.0070E+00  0.000E+00  0.000E+00  0.000E+00  1.91502E+00  1.000E+00  1.000E+00  9.441E-04  0.000E+00  0.000E+00
   1   11   12     2     3    1.0070E+00 -5.2220E-04   1.0075E+00  0.000E+00  0.000E+00  0.000E+00  1.85102E+00  1.000E+00  1.000E+00  4.545E-04  0.000E+00  0.000E+00
   1   12   12     2     4    1.0075E+00 -1.1851E-03   1.0087E+00  0.000E+00  0.000E+00  0.000E+00  1.78557E+00  1.000E+00  1.000E+00  9.759E-04  0.000E+00  0.000E+00
   1   12   13     2     5    1.0087E+00 -5.4040E-04   1.0092E+00  0.000E+00  0.000E+00  0.000E+00  1.72157E+00  1.000E+00  1.000E+00  4.227E-04  0.000E+00  0.000E+00
   1   13   13     2     6    1.0092E+00 -1.3542E-03   1.0106E+00  0.000E+00  0.000E+00  0.000E+00  1.65611E+00  1.000E+00  1.000E+00  1.008E-03  0.000E+00  0.000E+00
   1   13   14     2     7    1.0106E+00 -5.5037E-04   1.0111E+00  0.000E+00  0.000E+00  0.000E+00  1.59211E+00  1.000E+00  1.000E+00  3.909E-04  0.000E+00  0.000E+00
   1   14   14     2     8    1.0111E+00 -1.5314E-03   1.0127E+00  0.000E+00  0.000E+00  0.000E+00  1.52666E+00  1.000E+00  1.000E+00  1.039E-03  0.000E+00  0.000E+00
   1   14   15     2     9    1.0127E+00 -5.5211E-04   1.0132E+00  0.000E+00  0.000E+00  0.000E+00  1.46266E+00  1.000E+00  1.000E+00  3.591E-04  0.000E+00  0.000E+00
   1   15   15     2    10    1.0132E+00 -1.7169E-03   1.0149E+00  0.000E+00  0.000E+00  0.000E+00  1.39720E+00  1.000E+00  1.000E+00  1.071E-03  0.000E+00  0.000E+00
   1   15   16     2    11    1.0149E+00 -5.4562E-04   1.0155E+00  0.000E+00  0.000E+00  0.000E+00  1.33320E+00  1.000E+00  1.000E+00  3.274E-04  0.000E+00  0.000E+00
   1   16   16     2    12    1.0155E+00 -1.9107E-03   1.0174E+00  0.000E+00  0.000E+00  0.000E+00  1.26775E+00  1.000E+00  1.000E+00  1.103E-03  0.000E+00  0.000E+00
   1   16   17     2    13    1.0174E+00 -5.3090E-04   1.0179E+00  0.000E+00  0.000E+00  0.000E+00  1.20375E+00  1.000E+00  1.000E+00  2.956E-04  0.000E+00  0.000E+00
   1   17   17     2    14    1.0179E+00 -2.1127E-03   1.0200E+00  0.000E+00  0.000E+00  0.000E+00  1.13829E+00  1.000E+00  1.000E+00  1.135E-03  0.000E+00  0.000E+00
   1   17   18     2    15    1.0200E+00 -5.0796E-04   1.0205E+00  0.000E+00  0.000E+00  0.000E+00  1.07429E+00  1.000E+00  1.000E+00  2.638E-04  0.000E+00  0.000E+00
   1   18   18     2    16    1.0205E+00 -1.3386E-03   1.0219E+00  0.000E+00  0.000E+00  0.000E+00  1.03111E+00  1.000E+00  1.000E+00  6.799E-04  0.000E+00  0.000E+00



 UBDSV3 SAVING "           GW ET" ON UNIT   9 AT TIME STEP    14, STRESS PERIOD   2
 UBDSV3 SAVING "    UZF RECHARGE" ON UNIT   9 AT TIME STEP    14, STRESS PERIOD   2
 UBDSV3 SAVING " SURFACE LEAKAGE" ON UNIT   9 AT TIME STEP    14, STRESS PERIOD   2
 UBDSV3 SAVING "       HORT+DUNN" ON UNIT   9 AT TIME STEP    14, STRESS PERIOD   2
 UBDSV3 SAVING "  STORAGE CHANGE" ON UNIT   9 AT TIME STEP    14, STRESS PERIOD   2


UNSATURATED ZONE PACKAGE VOLUMETRIC BUDGET FOR  TIME STEP    14 STRESS PERIOD    2
  ------------------------------------------------------------------------------



     CUMULATIVE VOLUMES      L**3       RATES FOR THIS TIME STEP      L**3/T
     ------------------                 ------------------------

           IN:                                      IN:
           ---                                      ---
        INFILTRATION =       0.0000E+00          INFILTRATION =       0.0000E+00

          OUT:                                     OUT:
          ----                                     ----
              UZF ET =       0.0000E+00                UZF ET =       0.0000E+00
        UZF RECHARGE =       0.0000E+00          UZF RECHARGE =       0.0000E+00

            IN - OUT =       0.0000E+00              IN - OUT =       0.0000E+00

          STORAGE:                                 STORAGE:
          --------                                 --------
      STORAGE CHANGE =       0.0000E+00        STORAGE CHANGE =       0.0000E+00

 PERCENT DISCREPANCY IS DIFFERENCE BETWEEN IN-OUT MINUS CHANGE IN STORAGE
 DIVIDED BY THE AVERAGE OF IN AND OUT TIMES 100

 PERCENT DISCREPANCY =           0.00     PERCENT DISCREPANCY =           0.00







 HEAD WILL BE SAVED ON UNIT   37 AT END OF TIME STEP   14, STRESS PERIOD    2

 DRAWDOWN WILL BE SAVED ON UNIT   38 AT END OF TIME STEP   14, STRESS PERIOD    2
1
  VOLUMETRIC BUDGET FOR ENTIRE MODEL AT END OF TIME STEP   14, STRESS PERIOD   2
  ------------------------------------------------------------------------------

     CUMULATIVE VOLUMES      L**3       RATES FOR THIS TIME STEP      L**3/T
     ------------------                 ------------------------

           IN:                                      IN:
           ---                                      ---
             STORAGE =       3.8033E-06               STORAGE =           0.0000
       CONSTANT HEAD =           2.4049         CONSTANT HEAD =       2.1880E-02
      STREAM LEAKAGE =           0.0000        STREAM LEAKAGE =           0.0000
        UZF RECHARGE =           0.0000          UZF RECHARGE =           0.0000
               GW ET =           0.0000                 GW ET =           0.0000
     SURFACE LEAKAGE =           0.0000       SURFACE LEAKAGE =           0.0000

            TOTAL IN =           2.4049              TOTAL IN =       2.1880E-02

          OUT:                                     OUT:
          ----                                     ----
             STORAGE =       1.3100E-06               STORAGE =           0.0000
       CONSTANT HEAD =           0.0000         CONSTANT HEAD =           0.0000
      STREAM LEAKAGE =           2.4053        STREAM LEAKAGE =       2.1883E-02
        UZF RECHARGE =           0.0000          UZF RECHARGE =           0.0000
               GW ET =           0.0000                 GW ET =           0.0000
     SURFACE LEAKAGE =           0.0000       SURFACE LEAKAGE =           0.0000

           TOTAL OUT =           2.4053             TOTAL OUT =       2.1883E-02

            IN - OUT =      -4.3344E-04              IN - OUT =      -3.1963E-06

 PERCENT DISCREPANCY =          -0.02     PERCENT DISCREPANCY =          -0.01






         TIME SUMMARY AT END OF TIME STEP   14 IN STRESS PERIOD    2
                    SECONDS     MINUTES      HOURS       DAYS        YEARS
                    -----------------------------------------------------------
   TIME STEP LENGTH  25.790     0.42983     7.16382E-03 2.98492E-04 8.17228E-07
 STRESS PERIOD TIME  108.92      1.8153     3.02548E-02 1.26062E-03 3.45138E-06
         TOTAL TIME  109.92      1.8320     3.05326E-02 1.27219E-03 3.48307E-06
1
 
 SOLVING FOR HEAD 
     1 CALLS TO PCG ROUTINE FOR TIME STEP    15 IN STRESS PERIOD    2
     1 TOTAL ITERATIONS

 MAXIMUM HEAD CHANGE FOR EACH ITERATION (1 INDICATES THE FIRST INNER ITERATION):

    HEAD CHANGE    HEAD CHANGE    HEAD CHANGE    HEAD CHANGE    HEAD CHANGE 
   LAYER,ROW,COL  LAYER,ROW,COL  LAYER,ROW,COL  LAYER,ROW,COL  LAYER,ROW,COL
 ---------------------------------------------------------------------------
  1  0.1093E-08
   (  1,  1, 20)

 MAXIMUM RESIDUAL FOR EACH ITERATION (1 INDICATES THE FIRST INNER ITERATION):

    RESIDUAL       RESIDUAL       RESIDUAL       RESIDUAL       RESIDUAL    
   LAYER,ROW,COL  LAYER,ROW,COL  LAYER,ROW,COL  LAYER,ROW,COL  LAYER,ROW,COL
 ---------------------------------------------------------------------------
  1 -0.4750E-05
   (  2,  2,  2)



 OUTPUT CONTROL FOR STRESS PERIOD    2   TIME STEP   15
    SAVE HEAD FOR ALL LAYERS
    SAVE DRAWDOWN FOR ALL LAYERS
    SAVE BUDGET
    PRINT BUDGET
 UBDSV1 SAVING "         STORAGE" ON UNIT   9 AT TIME STEP    15, STRESS PERIOD   2
 UBDSV2 SAVING "   CONSTANT HEAD" ON UNIT   9 AT TIME STEP    15, STRESS PERIOD   2
 UBDSV1 SAVING "FLOW RIGHT FACE " ON UNIT   9 AT TIME STEP    15, STRESS PERIOD   2
 UBDSV1 SAVING "FLOW FRONT FACE " ON UNIT   9 AT TIME STEP    15, STRESS PERIOD   2
 UBDSV1 SAVING "FLOW LOWER FACE " ON UNIT   9 AT TIME STEP    15, STRESS PERIOD   2
 UBDSV4 SAVING "  STREAM LEAKAGE" ON UNIT   9 AT TIME STEP    15, STRESS PERIOD   2



 STREAM LISTING     PERIOD      2   STEP       15

 LAYER ROW COL. STREAM  RCH.   FLOW INTO    STREAM     FLOW OUT OF   OVRLND.    DIRECT     STREAM      STREAM      STREAM     STREAM  STREAMBED   FLOW TO   CHNG. UNSAT. 
                SEG.NO.  NO.   STRM. RCH.    LOSS       STRM. RCH.   RUNOFF     PRECIP       ET         HEAD        DEPTH      WIDTH  CONDCTNC.   WAT. TAB.

   1    2    2     1     1    1.0000E+00 -8.9848E-06   1.0000E+00  0.000E+00  0.000E+00  0.000E+00  2.97978E+00  1.000E+00  1.000E+00  4.444E-04  0.000E+00  0.000E+00
   1    2    3     1     2    1.0000E+00 -3.0181E-05   1.0000E+00  0.000E+00  0.000E+00  0.000E+00  2.93755E+00  1.000E+00  1.000E+00  4.834E-04  0.000E+00  0.000E+00
   1    3    3     1     3    1.0000E+00 -1.1937E-04   1.0002E+00  0.000E+00  0.000E+00  0.000E+00  2.87283E+00  1.000E+00  1.000E+00  9.388E-04  0.000E+00  0.000E+00
   1    3    4     1     4    1.0002E+00 -8.9380E-05   1.0002E+00  0.000E+00  0.000E+00  0.000E+00  2.80883E+00  1.000E+00  1.000E+00  4.676E-04  0.000E+00  0.000E+00
   1    4    4     1     5    1.0002E+00 -2.4425E-04   1.0005E+00  0.000E+00  0.000E+00  0.000E+00  2.74411E+00  1.000E+00  1.000E+00  9.546E-04  0.000E+00  0.000E+00
   1    4    5     1     6    1.0005E+00 -1.4451E-04   1.0006E+00  0.000E+00  0.000E+00  0.000E+00  2.68011E+00  1.000E+00  1.000E+00  4.518E-04  0.000E+00  0.000E+00
   1    5    5     1     7    1.0006E+00 -3.7320E-04   1.0010E+00  0.000E+00  0.000E+00  0.000E+00  2.61540E+00  1.000E+00  1.000E+00  9.704E-04  0.000E+00  0.000E+00
   1    5    6     1     8    1.0010E+00 -1.9558E-04   1.0012E+00  0.000E+00  0.000E+00  0.000E+00  2.55140E+00  1.000E+00  1.000E+00  4.360E-04  0.000E+00  0.000E+00
   1    6    6     1     9    1.0012E+00 -5.0622E-04   1.0017E+00  0.000E+00  0.000E+00  0.000E+00  2.48668E+00  1.000E+00  1.000E+00  9.862E-04  0.000E+00  0.000E+00
   1    6    7     1    10    1.0017E+00 -2.4257E-04   1.0020E+00  0.000E+00  0.000E+00  0.000E+00  2.42268E+00  1.000E+00  1.000E+00  4.202E-04  0.000E+00  0.000E+00
   1    7    7     1    11    1.0020E+00 -6.4331E-04   1.0026E+00  0.000E+00  0.000E+00  0.000E+00  2.35796E+00  1.000E+00  1.000E+00  1.002E-03  0.000E+00  0.000E+00
   1    7    8     1    12    1.0026E+00 -2.8550E-04   1.0029E+00  0.000E+00  0.000E+00  0.000E+00  2.29396E+00  1.000E+00  1.000E+00  4.044E-04  0.000E+00  0.000E+00
   1    8    8     1    13    1.0029E+00 -7.8446E-04   1.0037E+00  0.000E+00  0.000E+00  0.000E+00  2.22924E+00  1.000E+00  1.000E+00  1.018E-03  0.000E+00  0.000E+00
   1    8    9     1    14    1.0037E+00 -3.2436E-04   1.0040E+00  0.000E+00  0.000E+00  0.000E+00  2.16524E+00  1.000E+00  1.000E+00  3.886E-04  0.000E+00  0.000E+00
   1    9    9     1    15    1.0040E+00 -9.2969E-04   1.0049E+00  0.000E+00  0.000E+00  0.000E+00  2.10052E+00  1.000E+00  1.000E+00  1.034E-03  0.000E+00  0.000E+00
   1    9   10     1    16    1.0049E+00 -3.5915E-04   1.0053E+00  0.000E+00  0.000E+00  0.000E+00  2.03652E+00  1.000E+00  1.000E+00  3.728E-04  0.000E+00  0.000E+00
   1   10   10     1    17    1.0053E+00 -2.1276E-04   1.0055E+00  0.000E+00  0.000E+00  0.000E+00  2.00978E+00  1.000E+00  1.000E+00  2.149E-04  0.000E+00  0.000E+00
   1   10   11     2     1    1.0055E+00 -4.6601E-04   1.0060E+00  0.000E+00  0.000E+00  0.000E+00  1.97911E+00  1.000E+00  1.000E+00  4.565E-04  0.000E+00  0.000E+00
   1   11   11     2     2    1.0060E+00 -1.0243E-03   1.0070E+00  0.000E+00  0.000E+00  0.000E+00  1.91502E+00  1.000E+00  1.000E+00  9.441E-04  0.000E+00  0.000E+00
   1   11   12     2     3    1.0070E+00 -5.2220E-04   1.0075E+00  0.000E+00  0.000E+00  0.000E+00  1.85102E+00  1.000E+00  1.000E+00  4.545E-04  0.000E+00  0.000E+00
   1   12   12     2     4    1.0075E+00 -1.1851E-03   1.0087E+00  0.000E+00  0.000E+00  0.000E+00  1.78557E+00  1.000E+00  1.000E+00  9.759E-04  0.000E+00  0.000E+00
   1   12   13     2     5    1.0087E+00 -5.4040E-04   1.0092E+00  0.000E+00  0.000E+00  0.000E+00  1.72157E+00  1.000E+00  1.000E+00  4.227E-04  0.000E+00  0.000E+00
   1   13   13     2     6    1.0092E+00 -1.3542E-03   1.0106E+00  0.000E+00  0.000E+00  0.000E+00  1.65611E+00  1.000E+00  1.000E+00  1.008E-03  0.000E+00  0.000E+00
   1   13   14     2     7    1.0106E+00 -5.5037E-04   1.0111E+00  0.000E+00  0.000E+00  0.000E+00  1.59211E+00  1.000E+00  1.000E+00  3.909E-04  0.000E+00  0.000E+00
   1   14   14     2     8    1.0111E+00 -1.5314E-03   1.0127E+00  0.000E+00  0.000E+00  0.000E+00  1.52666E+00  1.000E+00  1.000E+00  1.039E-03  0.000E+00  0.000E+00
   1   14   15     2     9    1.0127E+00 -5.5211E-04   1.0132E+00  0.000E+00  0.000E+00  0.000E+00  1.46266E+00  1.000E+00  1.000E+00  3.591E-04  0.000E+00  0.000E+00
   1   15   15     2    10    1.0132E+00 -1.7169E-03   1.0149E+00  0.000E+00  0.000E+00  0.000E+00  1.39720E+00  1.000E+00  1.000E+00  1.071E-03  0.000E+00  0.000E+00
   1   15   16     2    11    1.0149E+00 -5.4562E-04   1.0155E+00  0.000E+00  0.000E+00  0.000E+00  1.33320E+00  1.000E+00  1.000E+00  3.274E-04  0.000E+00  0.000E+00
   1   16   16     2    12    1.0155E+00 -1.9107E-03   1.0174E+00  0.000E+00  0.000E+00  0.000E+00  1.26775E+00  1.000E+00  1.000E+00  1.103E-03  0.000E+00  0.000E+00
   1   16   17     2    13    1.0174E+00 -5.3090E-04   1.0179E+00  0.000E+00  0.000E+00  0.000E+00  1.20375E+00  1.000E+00  1.000E+00  2.956E-04  0.000E+00  0.000E+00
   1   17   17     2    14    1.0179E+00 -2.1127E-03   1.0200E+00  0.000E+00  0.000E+00  0.000E+00  1.13829E+00  1.000E+00  1.000E+00  1.135E-03  0.000E+00  0.000E+00
   1   17   18     2    15    1.0200E+00 -5.0796E-04   1.0205E+00  0.000E+00  0.000E+00  0.000E+00  1.07429E+00  1.000E+00  1.000E+00  2.638E-04  0.000E+00  0.000E+00
   1   18   18     2    16    1.0205E+00 -1.3386E-03   1.0219E+00  0.000E+00  0.000E+00  0.000E+00  1.03111E+00  1.000E+00  1.000E+00  6.799E-04  0.000E+00  0.000E+00



 UBDSV3 SAVING "           GW ET" ON UNIT   9 AT TIME STEP    15, STRESS PERIOD   2
 UBDSV3 SAVING "    UZF RECHARGE" ON UNIT   9 AT TIME STEP    15, STRESS PERIOD   2
 UBDSV3 SAVING " SURFACE LEAKAGE" ON UNIT   9 AT TIME STEP    15, STRESS PERIOD   2
 UBDSV3 SAVING "       HORT+DUNN" ON UNIT   9 AT TIME STEP    15, STRESS PERIOD   2
 UBDSV3 SAVING "  STORAGE CHANGE" ON UNIT   9 AT TIME STEP    15, STRESS PERIOD   2


UNSATURATED ZONE PACKAGE VOLUMETRIC BUDGET FOR  TIME STEP    15 STRESS PERIOD    2
  ------------------------------------------------------------------------------



     CUMULATIVE VOLUMES      L**3       RATES FOR THIS TIME STEP      L**3/T
     ------------------                 ------------------------

           IN:                                      IN:
           ---                                      ---
        INFILTRATION =       0.0000E+00          INFILTRATION =       0.0000E+00

          OUT:                                     OUT:
          ----                                     ----
              UZF ET =       0.0000E+00                UZF ET =       0.0000E+00
        UZF RECHARGE =       0.0000E+00          UZF RECHARGE =       0.0000E+00

            IN - OUT =       0.0000E+00              IN - OUT =       0.0000E+00

          STORAGE:                                 STORAGE:
          --------                                 --------
      STORAGE CHANGE =       0.0000E+00        STORAGE CHANGE =       0.0000E+00

 PERCENT DISCREPANCY IS DIFFERENCE BETWEEN IN-OUT MINUS CHANGE IN STORAGE
 DIVIDED BY THE AVERAGE OF IN AND OUT TIMES 100

 PERCENT DISCREPANCY =           0.00     PERCENT DISCREPANCY =           0.00







 HEAD WILL BE SAVED ON UNIT   37 AT END OF TIME STEP   15, STRESS PERIOD    2

 DRAWDOWN WILL BE SAVED ON UNIT   38 AT END OF TIME STEP   15, STRESS PERIOD    2
1
  VOLUMETRIC BUDGET FOR ENTIRE MODEL AT END OF TIME STEP   15, STRESS PERIOD   2
  ------------------------------------------------------------------------------

     CUMULATIVE VOLUMES      L**3       RATES FOR THIS TIME STEP      L**3/T
     ------------------                 ------------------------

           IN:                                      IN:
           ---                                      ---
             STORAGE =       3.8033E-06               STORAGE =           0.0000
       CONSTANT HEAD =           3.1384         CONSTANT HEAD =       2.1880E-02
      STREAM LEAKAGE =           0.0000        STREAM LEAKAGE =           0.0000
        UZF RECHARGE =           0.0000          UZF RECHARGE =           0.0000
               GW ET =           0.0000                 GW ET =           0.0000
     SURFACE LEAKAGE =           0.0000       SURFACE LEAKAGE =           0.0000

            TOTAL IN =           3.1384              TOTAL IN =       2.1880E-02

          OUT:                                     OUT:
          ----                                     ----
             STORAGE =       1.3100E-06               STORAGE =           0.0000
       CONSTANT HEAD =           0.0000         CONSTANT HEAD =           0.0000
      STREAM LEAKAGE =           3.1390        STREAM LEAKAGE =       2.1883E-02
        UZF RECHARGE =           0.0000          UZF RECHARGE =           0.0000
               GW ET =           0.0000                 GW ET =           0.0000
     SURFACE LEAKAGE =           0.0000       SURFACE LEAKAGE =           0.0000

           TOTAL OUT =           3.1390             TOTAL OUT =       2.1883E-02

            IN - OUT =      -5.3263E-04              IN - OUT =      -2.9560E-06

 PERCENT DISCREPANCY =          -0.02     PERCENT DISCREPANCY =          -0.01






         TIME SUMMARY AT END OF TIME STEP   15 IN STRESS PERIOD    2
                    SECONDS     MINUTES      HOURS       DAYS        YEARS
                    -----------------------------------------------------------
   TIME STEP LENGTH  33.527     0.55878     9.31296E-03 3.88040E-04 1.06240E-06
 STRESS PERIOD TIME  142.44      2.3741     3.95678E-02 1.64866E-03 4.51378E-06
         TOTAL TIME  143.44      2.3907     3.98455E-02 1.66023E-03 4.54546E-06
1
 
 SOLVING FOR HEAD 
     1 CALLS TO PCG ROUTINE FOR TIME STEP    16 IN STRESS PERIOD    2
     1 TOTAL ITERATIONS

 MAXIMUM HEAD CHANGE FOR EACH ITERATION (1 INDICATES THE FIRST INNER ITERATION):

    HEAD CHANGE    HEAD CHANGE    HEAD CHANGE    HEAD CHANGE    HEAD CHANGE 
   LAYER,ROW,COL  LAYER,ROW,COL  LAYER,ROW,COL  LAYER,ROW,COL  LAYER,ROW,COL
 ---------------------------------------------------------------------------
  1 -0.1184E-08
   (  2,  1, 19)

 MAXIMUM RESIDUAL FOR EACH ITERATION (1 INDICATES THE FIRST INNER ITERATION):

    RESIDUAL       RESIDUAL       RESIDUAL       RESIDUAL       RESIDUAL    
   LAYER,ROW,COL  LAYER,ROW,COL  LAYER,ROW,COL  LAYER,ROW,COL  LAYER,ROW,COL
 ---------------------------------------------------------------------------
  1 -0.4371E-05
   (  2,  2,  2)



 OUTPUT CONTROL FOR STRESS PERIOD    2   TIME STEP   16
    SAVE HEAD FOR ALL LAYERS
    SAVE DRAWDOWN FOR ALL LAYERS
    SAVE BUDGET
    PRINT BUDGET
 UBDSV1 SAVING "         STORAGE" ON UNIT   9 AT TIME STEP    16, STRESS PERIOD   2
 UBDSV2 SAVING "   CONSTANT HEAD" ON UNIT   9 AT TIME STEP    16, STRESS PERIOD   2
 UBDSV1 SAVING "FLOW RIGHT FACE " ON UNIT   9 AT TIME STEP    16, STRESS PERIOD   2
 UBDSV1 SAVING "FLOW FRONT FACE " ON UNIT   9 AT TIME STEP    16, STRESS PERIOD   2
 UBDSV1 SAVING "FLOW LOWER FACE " ON UNIT   9 AT TIME STEP    16, STRESS PERIOD   2
 UBDSV4 SAVING "  STREAM LEAKAGE" ON UNIT   9 AT TIME STEP    16, STRESS PERIOD   2



 STREAM LISTING     PERIOD      2   STEP       16

 LAYER ROW COL. STREAM  RCH.   FLOW INTO    STREAM     FLOW OUT OF   OVRLND.    DIRECT     STREAM      STREAM      STREAM     STREAM  STREAMBED   FLOW TO   CHNG. UNSAT. 
                SEG.NO.  NO.   STRM. RCH.    LOSS       STRM. RCH.   RUNOFF     PRECIP       ET         HEAD        DEPTH      WIDTH  CONDCTNC.   WAT. TAB.

   1    2    2     1     1    1.0000E+00 -8.9848E-06   1.0000E+00  0.000E+00  0.000E+00  0.000E+00  2.97978E+00  1.000E+00  1.000E+00  4.444E-04  0.000E+00  0.000E+00
   1    2    3     1     2    1.0000E+00 -3.0181E-05   1.0000E+00  0.000E+00  0.000E+00  0.000E+00  2.93755E+00  1.000E+00  1.000E+00  4.834E-04  0.000E+00  0.000E+00
   1    3    3     1     3    1.0000E+00 -1.1937E-04   1.0002E+00  0.000E+00  0.000E+00  0.000E+00  2.87283E+00  1.000E+00  1.000E+00  9.388E-04  0.000E+00  0.000E+00
   1    3    4     1     4    1.0002E+00 -8.9380E-05   1.0002E+00  0.000E+00  0.000E+00  0.000E+00  2.80883E+00  1.000E+00  1.000E+00  4.676E-04  0.000E+00  0.000E+00
   1    4    4     1     5    1.0002E+00 -2.4425E-04   1.0005E+00  0.000E+00  0.000E+00  0.000E+00  2.74411E+00  1.000E+00  1.000E+00  9.546E-04  0.000E+00  0.000E+00
   1    4    5     1     6    1.0005E+00 -1.4451E-04   1.0006E+00  0.000E+00  0.000E+00  0.000E+00  2.68011E+00  1.000E+00  1.000E+00  4.518E-04  0.000E+00  0.000E+00
   1    5    5     1     7    1.0006E+00 -3.7320E-04   1.0010E+00  0.000E+00  0.000E+00  0.000E+00  2.61540E+00  1.000E+00  1.000E+00  9.704E-04  0.000E+00  0.000E+00
   1    5    6     1     8    1.0010E+00 -1.9558E-04   1.0012E+00  0.000E+00  0.000E+00  0.000E+00  2.55140E+00  1.000E+00  1.000E+00  4.360E-04  0.000E+00  0.000E+00
   1    6    6     1     9    1.0012E+00 -5.0622E-04   1.0017E+00  0.000E+00  0.000E+00  0.000E+00  2.48668E+00  1.000E+00  1.000E+00  9.862E-04  0.000E+00  0.000E+00
   1    6    7     1    10    1.0017E+00 -2.4257E-04   1.0020E+00  0.000E+00  0.000E+00  0.000E+00  2.42268E+00  1.000E+00  1.000E+00  4.202E-04  0.000E+00  0.000E+00
   1    7    7     1    11    1.0020E+00 -6.4331E-04   1.0026E+00  0.000E+00  0.000E+00  0.000E+00  2.35796E+00  1.000E+00  1.000E+00  1.002E-03  0.000E+00  0.000E+00
   1    7    8     1    12    1.0026E+00 -2.8550E-04   1.0029E+00  0.000E+00  0.000E+00  0.000E+00  2.29396E+00  1.000E+00  1.000E+00  4.044E-04  0.000E+00  0.000E+00
   1    8    8     1    13    1.0029E+00 -7.8446E-04   1.0037E+00  0.000E+00  0.000E+00  0.000E+00  2.22924E+00  1.000E+00  1.000E+00  1.018E-03  0.000E+00  0.000E+00
   1    8    9     1    14    1.0037E+00 -3.2436E-04   1.0040E+00  0.000E+00  0.000E+00  0.000E+00  2.16524E+00  1.000E+00  1.000E+00  3.886E-04  0.000E+00  0.000E+00
   1    9    9     1    15    1.0040E+00 -9.2969E-04   1.0049E+00  0.000E+00  0.000E+00  0.000E+00  2.10052E+00  1.000E+00  1.000E+00  1.034E-03  0.000E+00  0.000E+00
   1    9   10     1    16    1.0049E+00 -3.5915E-04   1.0053E+00  0.000E+00  0.000E+00  0.000E+00  2.03652E+00  1.000E+00  1.000E+00  3.728E-04  0.000E+00  0.000E+00
   1   10   10     1    17    1.0053E+00 -2.1276E-04   1.0055E+00  0.000E+00  0.000E+00  0.000E+00  2.00978E+00  1.000E+00  1.000E+00  2.149E-04  0.000E+00  0.000E+00
   1   10   11     2     1    1.0055E+00 -4.6601E-04   1.0060E+00  0.000E+00  0.000E+00  0.000E+00  1.97911E+00  1.000E+00  1.000E+00  4.565E-04  0.000E+00  0.000E+00
   1   11   11     2     2    1.0060E+00 -1.0243E-03   1.0070E+00  0.000E+00  0.000E+00  0.000E+00  1.91502E+00  1.000E+00  1.000E+00  9.441E-04  0.000E+00  0.000E+00
   1   11   12     2     3    1.0070E+00 -5.2220E-04   1.0075E+00  0.000E+00  0.000E+00  0.000E+00  1.85102E+00  1.000E+00  1.000E+00  4.545E-04  0.000E+00  0.000E+00
   1   12   12     2     4    1.0075E+00 -1.1851E-03   1.0087E+00  0.000E+00  0.000E+00  0.000E+00  1.78557E+00  1.000E+00  1.000E+00  9.759E-04  0.000E+00  0.000E+00
   1   12   13     2     5    1.0087E+00 -5.4040E-04   1.0092E+00  0.000E+00  0.000E+00  0.000E+00  1.72157E+00  1.000E+00  1.000E+00  4.227E-04  0.000E+00  0.000E+00
   1   13   13     2     6    1.0092E+00 -1.3542E-03   1.0106E+00  0.000E+00  0.000E+00  0.000E+00  1.65611E+00  1.000E+00  1.000E+00  1.008E-03  0.000E+00  0.000E+00
   1   13   14     2     7    1.0106E+00 -5.5037E-04   1.0111E+00  0.000E+00  0.000E+00  0.000E+00  1.59211E+00  1.000E+00  1.000E+00  3.909E-04  0.000E+00  0.000E+00
   1   14   14     2     8    1.0111E+00 -1.5314E-03   1.0127E+00  0.000E+00  0.000E+00  0.000E+00  1.52666E+00  1.000E+00  1.000E+00  1.039E-03  0.000E+00  0.000E+00
   1   14   15     2     9    1.0127E+00 -5.5211E-04   1.0132E+00  0.000E+00  0.000E+00  0.000E+00  1.46266E+00  1.000E+00  1.000E+00  3.591E-04  0.000E+00  0.000E+00
   1   15   15     2    10    1.0132E+00 -1.7169E-03   1.0149E+00  0.000E+00  0.000E+00  0.000E+00  1.39720E+00  1.000E+00  1.000E+00  1.071E-03  0.000E+00  0.000E+00
   1   15   16     2    11    1.0149E+00 -5.4562E-04   1.0155E+00  0.000E+00  0.000E+00  0.000E+00  1.33320E+00  1.000E+00  1.000E+00  3.274E-04  0.000E+00  0.000E+00
   1   16   16     2    12    1.0155E+00 -1.9107E-03   1.0174E+00  0.000E+00  0.000E+00  0.000E+00  1.26775E+00  1.000E+00  1.000E+00  1.103E-03  0.000E+00  0.000E+00
   1   16   17     2    13    1.0174E+00 -5.3090E-04   1.0179E+00  0.000E+00  0.000E+00  0.000E+00  1.20375E+00  1.000E+00  1.000E+00  2.956E-04  0.000E+00  0.000E+00
   1   17   17     2    14    1.0179E+00 -2.1127E-03   1.0200E+00  0.000E+00  0.000E+00  0.000E+00  1.13829E+00  1.000E+00  1.000E+00  1.135E-03  0.000E+00  0.000E+00
   1   17   18     2    15    1.0200E+00 -5.0796E-04   1.0205E+00  0.000E+00  0.000E+00  0.000E+00  1.07429E+00  1.000E+00  1.000E+00  2.638E-04  0.000E+00  0.000E+00
   1   18   18     2    16    1.0205E+00 -1.3386E-03   1.0219E+00  0.000E+00  0.000E+00  0.000E+00  1.03111E+00  1.000E+00  1.000E+00  6.799E-04  0.000E+00  0.000E+00



 UBDSV3 SAVING "           GW ET" ON UNIT   9 AT TIME STEP    16, STRESS PERIOD   2
 UBDSV3 SAVING "    UZF RECHARGE" ON UNIT   9 AT TIME STEP    16, STRESS PERIOD   2
 UBDSV3 SAVING " SURFACE LEAKAGE" ON UNIT   9 AT TIME STEP    16, STRESS PERIOD   2
 UBDSV3 SAVING "       HORT+DUNN" ON UNIT   9 AT TIME STEP    16, STRESS PERIOD   2
 UBDSV3 SAVING "  STORAGE CHANGE" ON UNIT   9 AT TIME STEP    16, STRESS PERIOD   2


UNSATURATED ZONE PACKAGE VOLUMETRIC BUDGET FOR  TIME STEP    16 STRESS PERIOD    2
  ------------------------------------------------------------------------------



     CUMULATIVE VOLUMES      L**3       RATES FOR THIS TIME STEP      L**3/T
     ------------------                 ------------------------

           IN:                                      IN:
           ---                                      ---
        INFILTRATION =       0.0000E+00          INFILTRATION =       0.0000E+00

          OUT:                                     OUT:
          ----                                     ----
              UZF ET =       0.0000E+00                UZF ET =       0.0000E+00
        UZF RECHARGE =       0.0000E+00          UZF RECHARGE =       0.0000E+00

            IN - OUT =       0.0000E+00              IN - OUT =       0.0000E+00

          STORAGE:                                 STORAGE:
          --------                                 --------
      STORAGE CHANGE =       0.0000E+00        STORAGE CHANGE =       0.0000E+00

 PERCENT DISCREPANCY IS DIFFERENCE BETWEEN IN-OUT MINUS CHANGE IN STORAGE
 DIVIDED BY THE AVERAGE OF IN AND OUT TIMES 100

 PERCENT DISCREPANCY =           0.00     PERCENT DISCREPANCY =           0.00







 HEAD WILL BE SAVED ON UNIT   37 AT END OF TIME STEP   16, STRESS PERIOD    2

 DRAWDOWN WILL BE SAVED ON UNIT   38 AT END OF TIME STEP   16, STRESS PERIOD    2
1
  VOLUMETRIC BUDGET FOR ENTIRE MODEL AT END OF TIME STEP   16, STRESS PERIOD   2
  ------------------------------------------------------------------------------

     CUMULATIVE VOLUMES      L**3       RATES FOR THIS TIME STEP      L**3/T
     ------------------                 ------------------------

           IN:                                      IN:
           ---                                      ---
             STORAGE =       3.8033E-06               STORAGE =           0.0000
       CONSTANT HEAD =           4.0921         CONSTANT HEAD =       2.1880E-02
      STREAM LEAKAGE =           0.0000        STREAM LEAKAGE =           0.0000
        UZF RECHARGE =           0.0000          UZF RECHARGE =           0.0000
               GW ET =           0.0000                 GW ET =           0.0000
     SURFACE LEAKAGE =           0.0000       SURFACE LEAKAGE =           0.0000

            TOTAL IN =           4.0921              TOTAL IN =       2.1880E-02

          OUT:                                     OUT:
          ----                                     ----
             STORAGE =       1.3100E-06               STORAGE =           0.0000
       CONSTANT HEAD =           0.0000         CONSTANT HEAD =           0.0000
      STREAM LEAKAGE =           4.0927        STREAM LEAKAGE =       2.1883E-02
        UZF RECHARGE =           0.0000          UZF RECHARGE =           0.0000
               GW ET =           0.0000                 GW ET =           0.0000
     SURFACE LEAKAGE =           0.0000       SURFACE LEAKAGE =           0.0000

           TOTAL OUT =           4.0927             TOTAL OUT =       2.1883E-02

            IN - OUT =      -6.5422E-04              IN - OUT =      -2.7865E-06

 PERCENT DISCREPANCY =          -0.02     PERCENT DISCREPANCY =          -0.01






         TIME SUMMARY AT END OF TIME STEP   16 IN STRESS PERIOD    2
                    SECONDS     MINUTES      HOURS       DAYS        YEARS
                    -----------------------------------------------------------
   TIME STEP LENGTH  43.585     0.72641     1.21069E-02 5.04452E-04 1.38111E-06
 STRESS PERIOD TIME  186.03      3.1005     5.16746E-02 2.15311E-03 5.89489E-06
         TOTAL TIME  187.03      3.1171     5.19524E-02 2.16468E-03 5.92658E-06
1
 
 SOLVING FOR HEAD 
     1 CALLS TO PCG ROUTINE FOR TIME STEP    17 IN STRESS PERIOD    2
     1 TOTAL ITERATIONS

 MAXIMUM HEAD CHANGE FOR EACH ITERATION (1 INDICATES THE FIRST INNER ITERATION):

    HEAD CHANGE    HEAD CHANGE    HEAD CHANGE    HEAD CHANGE    HEAD CHANGE 
   LAYER,ROW,COL  LAYER,ROW,COL  LAYER,ROW,COL  LAYER,ROW,COL  LAYER,ROW,COL
 ---------------------------------------------------------------------------
  1  0.9208E-09
   (  1,  1, 20)

 MAXIMUM RESIDUAL FOR EACH ITERATION (1 INDICATES THE FIRST INNER ITERATION):

    RESIDUAL       RESIDUAL       RESIDUAL       RESIDUAL       RESIDUAL    
   LAYER,ROW,COL  LAYER,ROW,COL  LAYER,ROW,COL  LAYER,ROW,COL  LAYER,ROW,COL
 ---------------------------------------------------------------------------
  1 -0.3957E-05
   (  2,  2,  2)



 OUTPUT CONTROL FOR STRESS PERIOD    2   TIME STEP   17
    SAVE HEAD FOR ALL LAYERS
    SAVE DRAWDOWN FOR ALL LAYERS
    SAVE BUDGET
    PRINT BUDGET
 UBDSV1 SAVING "         STORAGE" ON UNIT   9 AT TIME STEP    17, STRESS PERIOD   2
 UBDSV2 SAVING "   CONSTANT HEAD" ON UNIT   9 AT TIME STEP    17, STRESS PERIOD   2
 UBDSV1 SAVING "FLOW RIGHT FACE " ON UNIT   9 AT TIME STEP    17, STRESS PERIOD   2
 UBDSV1 SAVING "FLOW FRONT FACE " ON UNIT   9 AT TIME STEP    17, STRESS PERIOD   2
 UBDSV1 SAVING "FLOW LOWER FACE " ON UNIT   9 AT TIME STEP    17, STRESS PERIOD   2
 UBDSV4 SAVING "  STREAM LEAKAGE" ON UNIT   9 AT TIME STEP    17, STRESS PERIOD   2



 STREAM LISTING     PERIOD      2   STEP       17

 LAYER ROW COL. STREAM  RCH.   FLOW INTO    STREAM     FLOW OUT OF   OVRLND.    DIRECT     STREAM      STREAM      STREAM     STREAM  STREAMBED   FLOW TO   CHNG. UNSAT. 
                SEG.NO.  NO.   STRM. RCH.    LOSS       STRM. RCH.   RUNOFF     PRECIP       ET         HEAD        DEPTH      WIDTH  CONDCTNC.   WAT. TAB.

   1    2    2     1     1    1.0000E+00 -8.9848E-06   1.0000E+00  0.000E+00  0.000E+00  0.000E+00  2.97978E+00  1.000E+00  1.000E+00  4.444E-04  0.000E+00  0.000E+00
   1    2    3     1     2    1.0000E+00 -3.0181E-05   1.0000E+00  0.000E+00  0.000E+00  0.000E+00  2.93755E+00  1.000E+00  1.000E+00  4.834E-04  0.000E+00  0.000E+00
   1    3    3     1     3    1.0000E+00 -1.1937E-04   1.0002E+00  0.000E+00  0.000E+00  0.000E+00  2.87283E+00  1.000E+00  1.000E+00  9.388E-04  0.000E+00  0.000E+00
   1    3    4     1     4    1.0002E+00 -8.9380E-05   1.0002E+00  0.000E+00  0.000E+00  0.000E+00  2.80883E+00  1.000E+00  1.000E+00  4.676E-04  0.000E+00  0.000E+00
   1    4    4     1     5    1.0002E+00 -2.4425E-04   1.0005E+00  0.000E+00  0.000E+00  0.000E+00  2.74411E+00  1.000E+00  1.000E+00  9.546E-04  0.000E+00  0.000E+00
   1    4    5     1     6    1.0005E+00 -1.4451E-04   1.0006E+00  0.000E+00  0.000E+00  0.000E+00  2.68011E+00  1.000E+00  1.000E+00  4.518E-04  0.000E+00  0.000E+00
   1    5    5     1     7    1.0006E+00 -3.7320E-04   1.0010E+00  0.000E+00  0.000E+00  0.000E+00  2.61540E+00  1.000E+00  1.000E+00  9.704E-04  0.000E+00  0.000E+00
   1    5    6     1     8    1.0010E+00 -1.9558E-04   1.0012E+00  0.000E+00  0.000E+00  0.000E+00  2.55140E+00  1.000E+00  1.000E+00  4.360E-04  0.000E+00  0.000E+00
   1    6    6     1     9    1.0012E+00 -5.0622E-04   1.0017E+00  0.000E+00  0.000E+00  0.000E+00  2.48668E+00  1.000E+00  1.000E+00  9.862E-04  0.000E+00  0.000E+00
   1    6    7     1    10    1.0017E+00 -2.4257E-04   1.0020E+00  0.000E+00  0.000E+00  0.000E+00  2.42268E+00  1.000E+00  1.000E+00  4.202E-04  0.000E+00  0.000E+00
   1    7    7     1    11    1.0020E+00 -6.4331E-04   1.0026E+00  0.000E+00  0.000E+00  0.000E+00  2.35796E+00  1.000E+00  1.000E+00  1.002E-03  0.000E+00  0.000E+00
   1    7    8     1    12    1.0026E+00 -2.8550E-04   1.0029E+00  0.000E+00  0.000E+00  0.000E+00  2.29396E+00  1.000E+00  1.000E+00  4.044E-04  0.000E+00  0.000E+00
   1    8    8     1    13    1.0029E+00 -7.8446E-04   1.0037E+00  0.000E+00  0.000E+00  0.000E+00  2.22924E+00  1.000E+00  1.000E+00  1.018E-03  0.000E+00  0.000E+00
   1    8    9     1    14    1.0037E+00 -3.2436E-04   1.0040E+00  0.000E+00  0.000E+00  0.000E+00  2.16524E+00  1.000E+00  1.000E+00  3.886E-04  0.000E+00  0.000E+00
   1    9    9     1    15    1.0040E+00 -9.2969E-04   1.0049E+00  0.000E+00  0.000E+00  0.000E+00  2.10052E+00  1.000E+00  1.000E+00  1.034E-03  0.000E+00  0.000E+00
   1    9   10     1    16    1.0049E+00 -3.5915E-04   1.0053E+00  0.000E+00  0.000E+00  0.000E+00  2.03652E+00  1.000E+00  1.000E+00  3.728E-04  0.000E+00  0.000E+00
   1   10   10     1    17    1.0053E+00 -2.1276E-04   1.0055E+00  0.000E+00  0.000E+00  0.000E+00  2.00978E+00  1.000E+00  1.000E+00  2.149E-04  0.000E+00  0.000E+00
   1   10   11     2     1    1.0055E+00 -4.6601E-04   1.0060E+00  0.000E+00  0.000E+00  0.000E+00  1.97911E+00  1.000E+00  1.000E+00  4.565E-04  0.000E+00  0.000E+00
   1   11   11     2     2    1.0060E+00 -1.0243E-03   1.0070E+00  0.000E+00  0.000E+00  0.000E+00  1.91502E+00  1.000E+00  1.000E+00  9.441E-04  0.000E+00  0.000E+00
   1   11   12     2     3    1.0070E+00 -5.2220E-04   1.0075E+00  0.000E+00  0.000E+00  0.000E+00  1.85102E+00  1.000E+00  1.000E+00  4.545E-04  0.000E+00  0.000E+00
   1   12   12     2     4    1.0075E+00 -1.1851E-03   1.0087E+00  0.000E+00  0.000E+00  0.000E+00  1.78557E+00  1.000E+00  1.000E+00  9.759E-04  0.000E+00  0.000E+00
   1   12   13     2     5    1.0087E+00 -5.4040E-04   1.0092E+00  0.000E+00  0.000E+00  0.000E+00  1.72157E+00  1.000E+00  1.000E+00  4.227E-04  0.000E+00  0.000E+00
   1   13   13     2     6    1.0092E+00 -1.3542E-03   1.0106E+00  0.000E+00  0.000E+00  0.000E+00  1.65611E+00  1.000E+00  1.000E+00  1.008E-03  0.000E+00  0.000E+00
   1   13   14     2     7    1.0106E+00 -5.5037E-04   1.0111E+00  0.000E+00  0.000E+00  0.000E+00  1.59211E+00  1.000E+00  1.000E+00  3.909E-04  0.000E+00  0.000E+00
   1   14   14     2     8    1.0111E+00 -1.5314E-03   1.0127E+00  0.000E+00  0.000E+00  0.000E+00  1.52666E+00  1.000E+00  1.000E+00  1.039E-03  0.000E+00  0.000E+00
   1   14   15     2     9    1.0127E+00 -5.5211E-04   1.0132E+00  0.000E+00  0.000E+00  0.000E+00  1.46266E+00  1.000E+00  1.000E+00  3.591E-04  0.000E+00  0.000E+00
   1   15   15     2    10    1.0132E+00 -1.7169E-03   1.0149E+00  0.000E+00  0.000E+00  0.000E+00  1.39720E+00  1.000E+00  1.000E+00  1.071E-03  0.000E+00  0.000E+00
   1   15   16     2    11    1.0149E+00 -5.4562E-04   1.0155E+00  0.000E+00  0.000E+00  0.000E+00  1.33320E+00  1.000E+00  1.000E+00  3.274E-04  0.000E+00  0.000E+00
   1   16   16     2    12    1.0155E+00 -1.9107E-03   1.0174E+00  0.000E+00  0.000E+00  0.000E+00  1.26775E+00  1.000E+00  1.000E+00  1.103E-03  0.000E+00  0.000E+00
   1   16   17     2    13    1.0174E+00 -5.3090E-04   1.0179E+00  0.000E+00  0.000E+00  0.000E+00  1.20375E+00  1.000E+00  1.000E+00  2.956E-04  0.000E+00  0.000E+00
   1   17   17     2    14    1.0179E+00 -2.1127E-03   1.0200E+00  0.000E+00  0.000E+00  0.000E+00  1.13829E+00  1.000E+00  1.000E+00  1.135E-03  0.000E+00  0.000E+00
   1   17   18     2    15    1.0200E+00 -5.0796E-04   1.0205E+00  0.000E+00  0.000E+00  0.000E+00  1.07429E+00  1.000E+00  1.000E+00  2.638E-04  0.000E+00  0.000E+00
   1   18   18     2    16    1.0205E+00 -1.3386E-03   1.0219E+00  0.000E+00  0.000E+00  0.000E+00  1.03111E+00  1.000E+00  1.000E+00  6.799E-04  0.000E+00  0.000E+00



 UBDSV3 SAVING "           GW ET" ON UNIT   9 AT TIME STEP    17, STRESS PERIOD   2
 UBDSV3 SAVING "    UZF RECHARGE" ON UNIT   9 AT TIME STEP    17, STRESS PERIOD   2
 UBDSV3 SAVING " SURFACE LEAKAGE" ON UNIT   9 AT TIME STEP    17, STRESS PERIOD   2
 UBDSV3 SAVING "       HORT+DUNN" ON UNIT   9 AT TIME STEP    17, STRESS PERIOD   2
 UBDSV3 SAVING "  STORAGE CHANGE" ON UNIT   9 AT TIME STEP    17, STRESS PERIOD   2


UNSATURATED ZONE PACKAGE VOLUMETRIC BUDGET FOR  TIME STEP    17 STRESS PERIOD    2
  ------------------------------------------------------------------------------



     CUMULATIVE VOLUMES      L**3       RATES FOR THIS TIME STEP      L**3/T
     ------------------                 ------------------------

           IN:                                      IN:
           ---                                      ---
        INFILTRATION =       0.0000E+00          INFILTRATION =       0.0000E+00

          OUT:                                     OUT:
          ----                                     ----
              UZF ET =       0.0000E+00                UZF ET =       0.0000E+00
        UZF RECHARGE =       0.0000E+00          UZF RECHARGE =       0.0000E+00

            IN - OUT =       0.0000E+00              IN - OUT =       0.0000E+00

          STORAGE:                                 STORAGE:
          --------                                 --------
      STORAGE CHANGE =       0.0000E+00        STORAGE CHANGE =       0.0000E+00

 PERCENT DISCREPANCY IS DIFFERENCE BETWEEN IN-OUT MINUS CHANGE IN STORAGE
 DIVIDED BY THE AVERAGE OF IN AND OUT TIMES 100

 PERCENT DISCREPANCY =           0.00     PERCENT DISCREPANCY =           0.00







 HEAD WILL BE SAVED ON UNIT   37 AT END OF TIME STEP   17, STRESS PERIOD    2

 DRAWDOWN WILL BE SAVED ON UNIT   38 AT END OF TIME STEP   17, STRESS PERIOD    2
1
  VOLUMETRIC BUDGET FOR ENTIRE MODEL AT END OF TIME STEP   17, STRESS PERIOD   2
  ------------------------------------------------------------------------------

     CUMULATIVE VOLUMES      L**3       RATES FOR THIS TIME STEP      L**3/T
     ------------------                 ------------------------

           IN:                                      IN:
           ---                                      ---
             STORAGE =       3.8033E-06               STORAGE =           0.0000
       CONSTANT HEAD =           5.3318         CONSTANT HEAD =       2.1880E-02
      STREAM LEAKAGE =           0.0000        STREAM LEAKAGE =           0.0000
        UZF RECHARGE =           0.0000          UZF RECHARGE =           0.0000
               GW ET =           0.0000                 GW ET =           0.0000
     SURFACE LEAKAGE =           0.0000       SURFACE LEAKAGE =           0.0000

            TOTAL IN =           5.3318              TOTAL IN =       2.1880E-02

          OUT:                                     OUT:
          ----                                     ----
             STORAGE =       1.3100E-06               STORAGE =           0.0000
       CONSTANT HEAD =           0.0000         CONSTANT HEAD =           0.0000
      STREAM LEAKAGE =           5.3326        STREAM LEAKAGE =       2.1883E-02
        UZF RECHARGE =           0.0000          UZF RECHARGE =           0.0000
               GW ET =           0.0000                 GW ET =           0.0000
     SURFACE LEAKAGE =           0.0000       SURFACE LEAKAGE =           0.0000

           TOTAL OUT =           5.3326             TOTAL OUT =       2.1883E-02

            IN - OUT =      -8.0109E-04              IN - OUT =      -2.5854E-06

 PERCENT DISCREPANCY =          -0.02     PERCENT DISCREPANCY =          -0.01






         TIME SUMMARY AT END OF TIME STEP   17 IN STRESS PERIOD    2
                    SECONDS     MINUTES      HOURS       DAYS        YEARS
                    -----------------------------------------------------------
   TIME STEP LENGTH  56.660     0.94433     1.57389E-02 6.55788E-04 1.79545E-06
 STRESS PERIOD TIME  242.69      4.0448     6.74135E-02 2.80890E-03 7.69034E-06
         TOTAL TIME  243.69      4.0615     6.76913E-02 2.82047E-03 7.72203E-06
1
 
 SOLVING FOR HEAD 
     1 CALLS TO PCG ROUTINE FOR TIME STEP    18 IN STRESS PERIOD    2
     1 TOTAL ITERATIONS

 MAXIMUM HEAD CHANGE FOR EACH ITERATION (1 INDICATES THE FIRST INNER ITERATION):

    HEAD CHANGE    HEAD CHANGE    HEAD CHANGE    HEAD CHANGE    HEAD CHANGE 
   LAYER,ROW,COL  LAYER,ROW,COL  LAYER,ROW,COL  LAYER,ROW,COL  LAYER,ROW,COL
 ---------------------------------------------------------------------------
  1 -0.9928E-09
   (  2,  1, 19)

 MAXIMUM RESIDUAL FOR EACH ITERATION (1 INDICATES THE FIRST INNER ITERATION):

    RESIDUAL       RESIDUAL       RESIDUAL       RESIDUAL       RESIDUAL    
   LAYER,ROW,COL  LAYER,ROW,COL  LAYER,ROW,COL  LAYER,ROW,COL  LAYER,ROW,COL
 ---------------------------------------------------------------------------
  1 -0.3651E-05
   (  2,  2,  2)



 OUTPUT CONTROL FOR STRESS PERIOD    2   TIME STEP   18
    SAVE HEAD FOR ALL LAYERS
    SAVE DRAWDOWN FOR ALL LAYERS
    SAVE BUDGET
    PRINT BUDGET
 UBDSV1 SAVING "         STORAGE" ON UNIT   9 AT TIME STEP    18, STRESS PERIOD   2
 UBDSV2 SAVING "   CONSTANT HEAD" ON UNIT   9 AT TIME STEP    18, STRESS PERIOD   2
 UBDSV1 SAVING "FLOW RIGHT FACE " ON UNIT   9 AT TIME STEP    18, STRESS PERIOD   2
 UBDSV1 SAVING "FLOW FRONT FACE " ON UNIT   9 AT TIME STEP    18, STRESS PERIOD   2
 UBDSV1 SAVING "FLOW LOWER FACE " ON UNIT   9 AT TIME STEP    18, STRESS PERIOD   2
 UBDSV4 SAVING "  STREAM LEAKAGE" ON UNIT   9 AT TIME STEP    18, STRESS PERIOD   2



 STREAM LISTING     PERIOD      2   STEP       18

 LAYER ROW COL. STREAM  RCH.   FLOW INTO    STREAM     FLOW OUT OF   OVRLND.    DIRECT     STREAM      STREAM      STREAM     STREAM  STREAMBED   FLOW TO   CHNG. UNSAT. 
                SEG.NO.  NO.   STRM. RCH.    LOSS       STRM. RCH.   RUNOFF     PRECIP       ET         HEAD        DEPTH      WIDTH  CONDCTNC.   WAT. TAB.

   1    2    2     1     1    1.0000E+00 -8.9848E-06   1.0000E+00  0.000E+00  0.000E+00  0.000E+00  2.97978E+00  1.000E+00  1.000E+00  4.444E-04  0.000E+00  0.000E+00
   1    2    3     1     2    1.0000E+00 -3.0181E-05   1.0000E+00  0.000E+00  0.000E+00  0.000E+00  2.93755E+00  1.000E+00  1.000E+00  4.834E-04  0.000E+00  0.000E+00
   1    3    3     1     3    1.0000E+00 -1.1937E-04   1.0002E+00  0.000E+00  0.000E+00  0.000E+00  2.87283E+00  1.000E+00  1.000E+00  9.388E-04  0.000E+00  0.000E+00
   1    3    4     1     4    1.0002E+00 -8.9380E-05   1.0002E+00  0.000E+00  0.000E+00  0.000E+00  2.80883E+00  1.000E+00  1.000E+00  4.676E-04  0.000E+00  0.000E+00
   1    4    4     1     5    1.0002E+00 -2.4425E-04   1.0005E+00  0.000E+00  0.000E+00  0.000E+00  2.74411E+00  1.000E+00  1.000E+00  9.546E-04  0.000E+00  0.000E+00
   1    4    5     1     6    1.0005E+00 -1.4451E-04   1.0006E+00  0.000E+00  0.000E+00  0.000E+00  2.68011E+00  1.000E+00  1.000E+00  4.518E-04  0.000E+00  0.000E+00
   1    5    5     1     7    1.0006E+00 -3.7320E-04   1.0010E+00  0.000E+00  0.000E+00  0.000E+00  2.61540E+00  1.000E+00  1.000E+00  9.704E-04  0.000E+00  0.000E+00
   1    5    6     1     8    1.0010E+00 -1.9558E-04   1.0012E+00  0.000E+00  0.000E+00  0.000E+00  2.55140E+00  1.000E+00  1.000E+00  4.360E-04  0.000E+00  0.000E+00
   1    6    6     1     9    1.0012E+00 -5.0622E-04   1.0017E+00  0.000E+00  0.000E+00  0.000E+00  2.48668E+00  1.000E+00  1.000E+00  9.862E-04  0.000E+00  0.000E+00
   1    6    7     1    10    1.0017E+00 -2.4257E-04   1.0020E+00  0.000E+00  0.000E+00  0.000E+00  2.42268E+00  1.000E+00  1.000E+00  4.202E-04  0.000E+00  0.000E+00
   1    7    7     1    11    1.0020E+00 -6.4331E-04   1.0026E+00  0.000E+00  0.000E+00  0.000E+00  2.35796E+00  1.000E+00  1.000E+00  1.002E-03  0.000E+00  0.000E+00
   1    7    8     1    12    1.0026E+00 -2.8550E-04   1.0029E+00  0.000E+00  0.000E+00  0.000E+00  2.29396E+00  1.000E+00  1.000E+00  4.044E-04  0.000E+00  0.000E+00
   1    8    8     1    13    1.0029E+00 -7.8446E-04   1.0037E+00  0.000E+00  0.000E+00  0.000E+00  2.22924E+00  1.000E+00  1.000E+00  1.018E-03  0.000E+00  0.000E+00
   1    8    9     1    14    1.0037E+00 -3.2436E-04   1.0040E+00  0.000E+00  0.000E+00  0.000E+00  2.16524E+00  1.000E+00  1.000E+00  3.886E-04  0.000E+00  0.000E+00
   1    9    9     1    15    1.0040E+00 -9.2969E-04   1.0049E+00  0.000E+00  0.000E+00  0.000E+00  2.10052E+00  1.000E+00  1.000E+00  1.034E-03  0.000E+00  0.000E+00
   1    9   10     1    16    1.0049E+00 -3.5915E-04   1.0053E+00  0.000E+00  0.000E+00  0.000E+00  2.03652E+00  1.000E+00  1.000E+00  3.728E-04  0.000E+00  0.000E+00
   1   10   10     1    17    1.0053E+00 -2.1276E-04   1.0055E+00  0.000E+00  0.000E+00  0.000E+00  2.00978E+00  1.000E+00  1.000E+00  2.149E-04  0.000E+00  0.000E+00
   1   10   11     2     1    1.0055E+00 -4.6601E-04   1.0060E+00  0.000E+00  0.000E+00  0.000E+00  1.97911E+00  1.000E+00  1.000E+00  4.565E-04  0.000E+00  0.000E+00
   1   11   11     2     2    1.0060E+00 -1.0243E-03   1.0070E+00  0.000E+00  0.000E+00  0.000E+00  1.91502E+00  1.000E+00  1.000E+00  9.441E-04  0.000E+00  0.000E+00
   1   11   12     2     3    1.0070E+00 -5.2220E-04   1.0075E+00  0.000E+00  0.000E+00  0.000E+00  1.85102E+00  1.000E+00  1.000E+00  4.545E-04  0.000E+00  0.000E+00
   1   12   12     2     4    1.0075E+00 -1.1851E-03   1.0087E+00  0.000E+00  0.000E+00  0.000E+00  1.78557E+00  1.000E+00  1.000E+00  9.759E-04  0.000E+00  0.000E+00
   1   12   13     2     5    1.0087E+00 -5.4040E-04   1.0092E+00  0.000E+00  0.000E+00  0.000E+00  1.72157E+00  1.000E+00  1.000E+00  4.227E-04  0.000E+00  0.000E+00
   1   13   13     2     6    1.0092E+00 -1.3542E-03   1.0106E+00  0.000E+00  0.000E+00  0.000E+00  1.65611E+00  1.000E+00  1.000E+00  1.008E-03  0.000E+00  0.000E+00
   1   13   14     2     7    1.0106E+00 -5.5037E-04   1.0111E+00  0.000E+00  0.000E+00  0.000E+00  1.59211E+00  1.000E+00  1.000E+00  3.909E-04  0.000E+00  0.000E+00
   1   14   14     2     8    1.0111E+00 -1.5314E-03   1.0127E+00  0.000E+00  0.000E+00  0.000E+00  1.52666E+00  1.000E+00  1.000E+00  1.039E-03  0.000E+00  0.000E+00
   1   14   15     2     9    1.0127E+00 -5.5211E-04   1.0132E+00  0.000E+00  0.000E+00  0.000E+00  1.46266E+00  1.000E+00  1.000E+00  3.591E-04  0.000E+00  0.000E+00
   1   15   15     2    10    1.0132E+00 -1.7169E-03   1.0149E+00  0.000E+00  0.000E+00  0.000E+00  1.39720E+00  1.000E+00  1.000E+00  1.071E-03  0.000E+00  0.000E+00
   1   15   16     2    11    1.0149E+00 -5.4562E-04   1.0155E+00  0.000E+00  0.000E+00  0.000E+00  1.33320E+00  1.000E+00  1.000E+00  3.274E-04  0.000E+00  0.000E+00
   1   16   16     2    12    1.0155E+00 -1.9107E-03   1.0174E+00  0.000E+00  0.000E+00  0.000E+00  1.26775E+00  1.000E+00  1.000E+00  1.103E-03  0.000E+00  0.000E+00
   1   16   17     2    13    1.0174E+00 -5.3090E-04   1.0179E+00  0.000E+00  0.000E+00  0.000E+00  1.20375E+00  1.000E+00  1.000E+00  2.956E-04  0.000E+00  0.000E+00
   1   17   17     2    14    1.0179E+00 -2.1127E-03   1.0200E+00  0.000E+00  0.000E+00  0.000E+00  1.13829E+00  1.000E+00  1.000E+00  1.135E-03  0.000E+00  0.000E+00
   1   17   18     2    15    1.0200E+00 -5.0796E-04   1.0205E+00  0.000E+00  0.000E+00  0.000E+00  1.07429E+00  1.000E+00  1.000E+00  2.638E-04  0.000E+00  0.000E+00
   1   18   18     2    16    1.0205E+00 -1.3386E-03   1.0219E+00  0.000E+00  0.000E+00  0.000E+00  1.03111E+00  1.000E+00  1.000E+00  6.799E-04  0.000E+00  0.000E+00



 UBDSV3 SAVING "           GW ET" ON UNIT   9 AT TIME STEP    18, STRESS PERIOD   2
 UBDSV3 SAVING "    UZF RECHARGE" ON UNIT   9 AT TIME STEP    18, STRESS PERIOD   2
 UBDSV3 SAVING " SURFACE LEAKAGE" ON UNIT   9 AT TIME STEP    18, STRESS PERIOD   2
 UBDSV3 SAVING "       HORT+DUNN" ON UNIT   9 AT TIME STEP    18, STRESS PERIOD   2
 UBDSV3 SAVING "  STORAGE CHANGE" ON UNIT   9 AT TIME STEP    18, STRESS PERIOD   2


UNSATURATED ZONE PACKAGE VOLUMETRIC BUDGET FOR  TIME STEP    18 STRESS PERIOD    2
  ------------------------------------------------------------------------------



     CUMULATIVE VOLUMES      L**3       RATES FOR THIS TIME STEP      L**3/T
     ------------------                 ------------------------

           IN:                                      IN:
           ---                                      ---
        INFILTRATION =       0.0000E+00          INFILTRATION =       0.0000E+00

          OUT:                                     OUT:
          ----                                     ----
              UZF ET =       0.0000E+00                UZF ET =       0.0000E+00
        UZF RECHARGE =       0.0000E+00          UZF RECHARGE =       0.0000E+00

            IN - OUT =       0.0000E+00              IN - OUT =       0.0000E+00

          STORAGE:                                 STORAGE:
          --------                                 --------
      STORAGE CHANGE =       0.0000E+00        STORAGE CHANGE =       0.0000E+00

 PERCENT DISCREPANCY IS DIFFERENCE BETWEEN IN-OUT MINUS CHANGE IN STORAGE
 DIVIDED BY THE AVERAGE OF IN AND OUT TIMES 100

 PERCENT DISCREPANCY =           0.00     PERCENT DISCREPANCY =           0.00







 HEAD WILL BE SAVED ON UNIT   37 AT END OF TIME STEP   18, STRESS PERIOD    2

 DRAWDOWN WILL BE SAVED ON UNIT   38 AT END OF TIME STEP   18, STRESS PERIOD    2
1
  VOLUMETRIC BUDGET FOR ENTIRE MODEL AT END OF TIME STEP   18, STRESS PERIOD   2
  ------------------------------------------------------------------------------

     CUMULATIVE VOLUMES      L**3       RATES FOR THIS TIME STEP      L**3/T
     ------------------                 ------------------------

           IN:                                      IN:
           ---                                      ---
             STORAGE =       3.8033E-06               STORAGE =           0.0000
       CONSTANT HEAD =           6.9435         CONSTANT HEAD =       2.1880E-02
      STREAM LEAKAGE =           0.0000        STREAM LEAKAGE =           0.0000
        UZF RECHARGE =           0.0000          UZF RECHARGE =           0.0000
               GW ET =           0.0000                 GW ET =           0.0000
     SURFACE LEAKAGE =           0.0000       SURFACE LEAKAGE =           0.0000

            TOTAL IN =           6.9435              TOTAL IN =       2.1880E-02

          OUT:                                     OUT:
          ----                                     ----
             STORAGE =       1.3100E-06               STORAGE =           0.0000
       CONSTANT HEAD =           0.0000         CONSTANT HEAD =           0.0000
      STREAM LEAKAGE =           6.9445        STREAM LEAKAGE =       2.1883E-02
        UZF RECHARGE =           0.0000          UZF RECHARGE =           0.0000
               GW ET =           0.0000                 GW ET =           0.0000
     SURFACE LEAKAGE =           0.0000       SURFACE LEAKAGE =           0.0000

           TOTAL OUT =           6.9445             TOTAL OUT =       2.1883E-02

            IN - OUT =      -9.8085E-04              IN - OUT =      -2.4401E-06

 PERCENT DISCREPANCY =          -0.01     PERCENT DISCREPANCY =          -0.01






         TIME SUMMARY AT END OF TIME STEP   18 IN STRESS PERIOD    2
                    SECONDS     MINUTES      HOURS       DAYS        YEARS
                    -----------------------------------------------------------
   TIME STEP LENGTH  73.658      1.2276     2.04606E-02 8.52524E-04 2.33408E-06
 STRESS PERIOD TIME  316.35      5.2724     8.78741E-02 3.66142E-03 1.00244E-05
         TOTAL TIME  317.35      5.2891     8.81519E-02 3.67299E-03 1.00561E-05
1
 
 SOLVING FOR HEAD 
     1 CALLS TO PCG ROUTINE FOR TIME STEP    19 IN STRESS PERIOD    2
     1 TOTAL ITERATIONS

 MAXIMUM HEAD CHANGE FOR EACH ITERATION (1 INDICATES THE FIRST INNER ITERATION):

    HEAD CHANGE    HEAD CHANGE    HEAD CHANGE    HEAD CHANGE    HEAD CHANGE 
   LAYER,ROW,COL  LAYER,ROW,COL  LAYER,ROW,COL  LAYER,ROW,COL  LAYER,ROW,COL
 ---------------------------------------------------------------------------
  1  0.7807E-09
   (  1,  1, 20)

 MAXIMUM RESIDUAL FOR EACH ITERATION (1 INDICATES THE FIRST INNER ITERATION):

    RESIDUAL       RESIDUAL       RESIDUAL       RESIDUAL       RESIDUAL    
   LAYER,ROW,COL  LAYER,ROW,COL  LAYER,ROW,COL  LAYER,ROW,COL  LAYER,ROW,COL
 ---------------------------------------------------------------------------
  1 -0.3301E-05
   (  2,  2,  2)



 OUTPUT CONTROL FOR STRESS PERIOD    2   TIME STEP   19
    SAVE HEAD FOR ALL LAYERS
    SAVE DRAWDOWN FOR ALL LAYERS
    SAVE BUDGET
    PRINT BUDGET
 UBDSV1 SAVING "         STORAGE" ON UNIT   9 AT TIME STEP    19, STRESS PERIOD   2
 UBDSV2 SAVING "   CONSTANT HEAD" ON UNIT   9 AT TIME STEP    19, STRESS PERIOD   2
 UBDSV1 SAVING "FLOW RIGHT FACE " ON UNIT   9 AT TIME STEP    19, STRESS PERIOD   2
 UBDSV1 SAVING "FLOW FRONT FACE " ON UNIT   9 AT TIME STEP    19, STRESS PERIOD   2
 UBDSV1 SAVING "FLOW LOWER FACE " ON UNIT   9 AT TIME STEP    19, STRESS PERIOD   2
 UBDSV4 SAVING "  STREAM LEAKAGE" ON UNIT   9 AT TIME STEP    19, STRESS PERIOD   2



 STREAM LISTING     PERIOD      2   STEP       19

 LAYER ROW COL. STREAM  RCH.   FLOW INTO    STREAM     FLOW OUT OF   OVRLND.    DIRECT     STREAM      STREAM      STREAM     STREAM  STREAMBED   FLOW TO   CHNG. UNSAT. 
                SEG.NO.  NO.   STRM. RCH.    LOSS       STRM. RCH.   RUNOFF     PRECIP       ET         HEAD        DEPTH      WIDTH  CONDCTNC.   WAT. TAB.

   1    2    2     1     1    1.0000E+00 -8.9848E-06   1.0000E+00  0.000E+00  0.000E+00  0.000E+00  2.97978E+00  1.000E+00  1.000E+00  4.444E-04  0.000E+00  0.000E+00
   1    2    3     1     2    1.0000E+00 -3.0181E-05   1.0000E+00  0.000E+00  0.000E+00  0.000E+00  2.93755E+00  1.000E+00  1.000E+00  4.834E-04  0.000E+00  0.000E+00
   1    3    3     1     3    1.0000E+00 -1.1937E-04   1.0002E+00  0.000E+00  0.000E+00  0.000E+00  2.87283E+00  1.000E+00  1.000E+00  9.388E-04  0.000E+00  0.000E+00
   1    3    4     1     4    1.0002E+00 -8.9380E-05   1.0002E+00  0.000E+00  0.000E+00  0.000E+00  2.80883E+00  1.000E+00  1.000E+00  4.676E-04  0.000E+00  0.000E+00
   1    4    4     1     5    1.0002E+00 -2.4425E-04   1.0005E+00  0.000E+00  0.000E+00  0.000E+00  2.74411E+00  1.000E+00  1.000E+00  9.546E-04  0.000E+00  0.000E+00
   1    4    5     1     6    1.0005E+00 -1.4451E-04   1.0006E+00  0.000E+00  0.000E+00  0.000E+00  2.68011E+00  1.000E+00  1.000E+00  4.518E-04  0.000E+00  0.000E+00
   1    5    5     1     7    1.0006E+00 -3.7320E-04   1.0010E+00  0.000E+00  0.000E+00  0.000E+00  2.61540E+00  1.000E+00  1.000E+00  9.704E-04  0.000E+00  0.000E+00
   1    5    6     1     8    1.0010E+00 -1.9558E-04   1.0012E+00  0.000E+00  0.000E+00  0.000E+00  2.55140E+00  1.000E+00  1.000E+00  4.360E-04  0.000E+00  0.000E+00
   1    6    6     1     9    1.0012E+00 -5.0622E-04   1.0017E+00  0.000E+00  0.000E+00  0.000E+00  2.48668E+00  1.000E+00  1.000E+00  9.862E-04  0.000E+00  0.000E+00
   1    6    7     1    10    1.0017E+00 -2.4257E-04   1.0020E+00  0.000E+00  0.000E+00  0.000E+00  2.42268E+00  1.000E+00  1.000E+00  4.202E-04  0.000E+00  0.000E+00
   1    7    7     1    11    1.0020E+00 -6.4331E-04   1.0026E+00  0.000E+00  0.000E+00  0.000E+00  2.35796E+00  1.000E+00  1.000E+00  1.002E-03  0.000E+00  0.000E+00
   1    7    8     1    12    1.0026E+00 -2.8550E-04   1.0029E+00  0.000E+00  0.000E+00  0.000E+00  2.29396E+00  1.000E+00  1.000E+00  4.044E-04  0.000E+00  0.000E+00
   1    8    8     1    13    1.0029E+00 -7.8446E-04   1.0037E+00  0.000E+00  0.000E+00  0.000E+00  2.22924E+00  1.000E+00  1.000E+00  1.018E-03  0.000E+00  0.000E+00
   1    8    9     1    14    1.0037E+00 -3.2436E-04   1.0040E+00  0.000E+00  0.000E+00  0.000E+00  2.16524E+00  1.000E+00  1.000E+00  3.886E-04  0.000E+00  0.000E+00
   1    9    9     1    15    1.0040E+00 -9.2969E-04   1.0049E+00  0.000E+00  0.000E+00  0.000E+00  2.10052E+00  1.000E+00  1.000E+00  1.034E-03  0.000E+00  0.000E+00
   1    9   10     1    16    1.0049E+00 -3.5915E-04   1.0053E+00  0.000E+00  0.000E+00  0.000E+00  2.03652E+00  1.000E+00  1.000E+00  3.728E-04  0.000E+00  0.000E+00
   1   10   10     1    17    1.0053E+00 -2.1276E-04   1.0055E+00  0.000E+00  0.000E+00  0.000E+00  2.00978E+00  1.000E+00  1.000E+00  2.149E-04  0.000E+00  0.000E+00
   1   10   11     2     1    1.0055E+00 -4.6601E-04   1.0060E+00  0.000E+00  0.000E+00  0.000E+00  1.97911E+00  1.000E+00  1.000E+00  4.565E-04  0.000E+00  0.000E+00
   1   11   11     2     2    1.0060E+00 -1.0243E-03   1.0070E+00  0.000E+00  0.000E+00  0.000E+00  1.91502E+00  1.000E+00  1.000E+00  9.441E-04  0.000E+00  0.000E+00
   1   11   12     2     3    1.0070E+00 -5.2220E-04   1.0075E+00  0.000E+00  0.000E+00  0.000E+00  1.85102E+00  1.000E+00  1.000E+00  4.545E-04  0.000E+00  0.000E+00
   1   12   12     2     4    1.0075E+00 -1.1851E-03   1.0087E+00  0.000E+00  0.000E+00  0.000E+00  1.78557E+00  1.000E+00  1.000E+00  9.759E-04  0.000E+00  0.000E+00
   1   12   13     2     5    1.0087E+00 -5.4040E-04   1.0092E+00  0.000E+00  0.000E+00  0.000E+00  1.72157E+00  1.000E+00  1.000E+00  4.227E-04  0.000E+00  0.000E+00
   1   13   13     2     6    1.0092E+00 -1.3542E-03   1.0106E+00  0.000E+00  0.000E+00  0.000E+00  1.65611E+00  1.000E+00  1.000E+00  1.008E-03  0.000E+00  0.000E+00
   1   13   14     2     7    1.0106E+00 -5.5037E-04   1.0111E+00  0.000E+00  0.000E+00  0.000E+00  1.59211E+00  1.000E+00  1.000E+00  3.909E-04  0.000E+00  0.000E+00
   1   14   14     2     8    1.0111E+00 -1.5314E-03   1.0127E+00  0.000E+00  0.000E+00  0.000E+00  1.52666E+00  1.000E+00  1.000E+00  1.039E-03  0.000E+00  0.000E+00
   1   14   15     2     9    1.0127E+00 -5.5211E-04   1.0132E+00  0.000E+00  0.000E+00  0.000E+00  1.46266E+00  1.000E+00  1.000E+00  3.591E-04  0.000E+00  0.000E+00
   1   15   15     2    10    1.0132E+00 -1.7169E-03   1.0149E+00  0.000E+00  0.000E+00  0.000E+00  1.39720E+00  1.000E+00  1.000E+00  1.071E-03  0.000E+00  0.000E+00
   1   15   16     2    11    1.0149E+00 -5.4562E-04   1.0155E+00  0.000E+00  0.000E+00  0.000E+00  1.33320E+00  1.000E+00  1.000E+00  3.274E-04  0.000E+00  0.000E+00
   1   16   16     2    12    1.0155E+00 -1.9107E-03   1.0174E+00  0.000E+00  0.000E+00  0.000E+00  1.26775E+00  1.000E+00  1.000E+00  1.103E-03  0.000E+00  0.000E+00
   1   16   17     2    13    1.0174E+00 -5.3090E-04   1.0179E+00  0.000E+00  0.000E+00  0.000E+00  1.20375E+00  1.000E+00  1.000E+00  2.956E-04  0.000E+00  0.000E+00
   1   17   17     2    14    1.0179E+00 -2.1127E-03   1.0200E+00  0.000E+00  0.000E+00  0.000E+00  1.13829E+00  1.000E+00  1.000E+00  1.135E-03  0.000E+00  0.000E+00
   1   17   18     2    15    1.0200E+00 -5.0796E-04   1.0205E+00  0.000E+00  0.000E+00  0.000E+00  1.07429E+00  1.000E+00  1.000E+00  2.638E-04  0.000E+00  0.000E+00
   1   18   18     2    16    1.0205E+00 -1.3386E-03   1.0219E+00  0.000E+00  0.000E+00  0.000E+00  1.03111E+00  1.000E+00  1.000E+00  6.799E-04  0.000E+00  0.000E+00



 UBDSV3 SAVING "           GW ET" ON UNIT   9 AT TIME STEP    19, STRESS PERIOD   2
 UBDSV3 SAVING "    UZF RECHARGE" ON UNIT   9 AT TIME STEP    19, STRESS PERIOD   2
 UBDSV3 SAVING " SURFACE LEAKAGE" ON UNIT   9 AT TIME STEP    19, STRESS PERIOD   2
 UBDSV3 SAVING "       HORT+DUNN" ON UNIT   9 AT TIME STEP    19, STRESS PERIOD   2
 UBDSV3 SAVING "  STORAGE CHANGE" ON UNIT   9 AT TIME STEP    19, STRESS PERIOD   2


UNSATURATED ZONE PACKAGE VOLUMETRIC BUDGET FOR  TIME STEP    19 STRESS PERIOD    2
  ------------------------------------------------------------------------------



     CUMULATIVE VOLUMES      L**3       RATES FOR THIS TIME STEP      L**3/T
     ------------------                 ------------------------

           IN:                                      IN:
           ---                                      ---
        INFILTRATION =       0.0000E+00          INFILTRATION =       0.0000E+00

          OUT:                                     OUT:
          ----                                     ----
              UZF ET =       0.0000E+00                UZF ET =       0.0000E+00
        UZF RECHARGE =       0.0000E+00          UZF RECHARGE =       0.0000E+00

            IN - OUT =       0.0000E+00              IN - OUT =       0.0000E+00

          STORAGE:                                 STORAGE:
          --------                                 --------
      STORAGE CHANGE =       0.0000E+00        STORAGE CHANGE =       0.0000E+00

 PERCENT DISCREPANCY IS DIFFERENCE BETWEEN IN-OUT MINUS CHANGE IN STORAGE
 DIVIDED BY THE AVERAGE OF IN AND OUT TIMES 100

 PERCENT DISCREPANCY =           0.00     PERCENT DISCREPANCY =           0.00







 HEAD WILL BE SAVED ON UNIT   37 AT END OF TIME STEP   19, STRESS PERIOD    2

 DRAWDOWN WILL BE SAVED ON UNIT   38 AT END OF TIME STEP   19, STRESS PERIOD    2
1
  VOLUMETRIC BUDGET FOR ENTIRE MODEL AT END OF TIME STEP   19, STRESS PERIOD   2
  ------------------------------------------------------------------------------

     CUMULATIVE VOLUMES      L**3       RATES FOR THIS TIME STEP      L**3/T
     ------------------                 ------------------------

           IN:                                      IN:
           ---                                      ---
             STORAGE =       3.8033E-06               STORAGE =           0.0000
       CONSTANT HEAD =           9.0387         CONSTANT HEAD =       2.1881E-02
      STREAM LEAKAGE =           0.0000        STREAM LEAKAGE =           0.0000
        UZF RECHARGE =           0.0000          UZF RECHARGE =           0.0000
               GW ET =           0.0000                 GW ET =           0.0000
     SURFACE LEAKAGE =           0.0000       SURFACE LEAKAGE =           0.0000

            TOTAL IN =           9.0387              TOTAL IN =       2.1881E-02

          OUT:                                     OUT:
          ----                                     ----
             STORAGE =       1.3100E-06               STORAGE =           0.0000
       CONSTANT HEAD =           0.0000         CONSTANT HEAD =           0.0000
      STREAM LEAKAGE =           9.0399        STREAM LEAKAGE =       2.1883E-02
        UZF RECHARGE =           0.0000          UZF RECHARGE =           0.0000
               GW ET =           0.0000                 GW ET =           0.0000
     SURFACE LEAKAGE =           0.0000       SURFACE LEAKAGE =           0.0000

           TOTAL OUT =           9.0399             TOTAL OUT =       2.1883E-02

            IN - OUT =      -1.1959E-03              IN - OUT =      -2.2464E-06

 PERCENT DISCREPANCY =          -0.01     PERCENT DISCREPANCY =          -0.01






         TIME SUMMARY AT END OF TIME STEP   19 IN STRESS PERIOD    2
                    SECONDS     MINUTES      HOURS       DAYS        YEARS
                    -----------------------------------------------------------
   TIME STEP LENGTH  95.755      1.5959     2.65987E-02 1.10828E-03 3.03431E-06
 STRESS PERIOD TIME  412.10      6.8684     0.11447     4.76970E-03 1.30587E-05
         TOTAL TIME  413.10      6.8850     0.11475     4.78128E-03 1.30904E-05
1
 
 SOLVING FOR HEAD 
     1 CALLS TO PCG ROUTINE FOR TIME STEP    20 IN STRESS PERIOD    2
     1 TOTAL ITERATIONS

 MAXIMUM HEAD CHANGE FOR EACH ITERATION (1 INDICATES THE FIRST INNER ITERATION):

    HEAD CHANGE    HEAD CHANGE    HEAD CHANGE    HEAD CHANGE    HEAD CHANGE 
   LAYER,ROW,COL  LAYER,ROW,COL  LAYER,ROW,COL  LAYER,ROW,COL  LAYER,ROW,COL
 ---------------------------------------------------------------------------
  1 -0.8357E-09
   (  2,  1, 19)

 MAXIMUM RESIDUAL FOR EACH ITERATION (1 INDICATES THE FIRST INNER ITERATION):

    RESIDUAL       RESIDUAL       RESIDUAL       RESIDUAL       RESIDUAL    
   LAYER,ROW,COL  LAYER,ROW,COL  LAYER,ROW,COL  LAYER,ROW,COL  LAYER,ROW,COL
 ---------------------------------------------------------------------------
  1 -0.3052E-05
   (  1,  1,  3)



 OUTPUT CONTROL FOR STRESS PERIOD    2   TIME STEP   20
    SAVE HEAD FOR ALL LAYERS
    SAVE DRAWDOWN FOR ALL LAYERS
    SAVE BUDGET
    PRINT BUDGET
 UBDSV1 SAVING "         STORAGE" ON UNIT   9 AT TIME STEP    20, STRESS PERIOD   2
 UBDSV2 SAVING "   CONSTANT HEAD" ON UNIT   9 AT TIME STEP    20, STRESS PERIOD   2
 UBDSV1 SAVING "FLOW RIGHT FACE " ON UNIT   9 AT TIME STEP    20, STRESS PERIOD   2
 UBDSV1 SAVING "FLOW FRONT FACE " ON UNIT   9 AT TIME STEP    20, STRESS PERIOD   2
 UBDSV1 SAVING "FLOW LOWER FACE " ON UNIT   9 AT TIME STEP    20, STRESS PERIOD   2
 UBDSV4 SAVING "  STREAM LEAKAGE" ON UNIT   9 AT TIME STEP    20, STRESS PERIOD   2



 STREAM LISTING     PERIOD      2   STEP       20

 LAYER ROW COL. STREAM  RCH.   FLOW INTO    STREAM     FLOW OUT OF   OVRLND.    DIRECT     STREAM      STREAM      STREAM     STREAM  STREAMBED   FLOW TO   CHNG. UNSAT. 
                SEG.NO.  NO.   STRM. RCH.    LOSS       STRM. RCH.   RUNOFF     PRECIP       ET         HEAD        DEPTH      WIDTH  CONDCTNC.   WAT. TAB.

   1    2    2     1     1    1.0000E+00 -8.9848E-06   1.0000E+00  0.000E+00  0.000E+00  0.000E+00  2.97978E+00  1.000E+00  1.000E+00  4.444E-04  0.000E+00  0.000E+00
   1    2    3     1     2    1.0000E+00 -3.0181E-05   1.0000E+00  0.000E+00  0.000E+00  0.000E+00  2.93755E+00  1.000E+00  1.000E+00  4.834E-04  0.000E+00  0.000E+00
   1    3    3     1     3    1.0000E+00 -1.1937E-04   1.0002E+00  0.000E+00  0.000E+00  0.000E+00  2.87283E+00  1.000E+00  1.000E+00  9.388E-04  0.000E+00  0.000E+00
   1    3    4     1     4    1.0002E+00 -8.9380E-05   1.0002E+00  0.000E+00  0.000E+00  0.000E+00  2.80883E+00  1.000E+00  1.000E+00  4.676E-04  0.000E+00  0.000E+00
   1    4    4     1     5    1.0002E+00 -2.4425E-04   1.0005E+00  0.000E+00  0.000E+00  0.000E+00  2.74411E+00  1.000E+00  1.000E+00  9.546E-04  0.000E+00  0.000E+00
   1    4    5     1     6    1.0005E+00 -1.4451E-04   1.0006E+00  0.000E+00  0.000E+00  0.000E+00  2.68011E+00  1.000E+00  1.000E+00  4.518E-04  0.000E+00  0.000E+00
   1    5    5     1     7    1.0006E+00 -3.7320E-04   1.0010E+00  0.000E+00  0.000E+00  0.000E+00  2.61540E+00  1.000E+00  1.000E+00  9.704E-04  0.000E+00  0.000E+00
   1    5    6     1     8    1.0010E+00 -1.9558E-04   1.0012E+00  0.000E+00  0.000E+00  0.000E+00  2.55140E+00  1.000E+00  1.000E+00  4.360E-04  0.000E+00  0.000E+00
   1    6    6     1     9    1.0012E+00 -5.0622E-04   1.0017E+00  0.000E+00  0.000E+00  0.000E+00  2.48668E+00  1.000E+00  1.000E+00  9.862E-04  0.000E+00  0.000E+00
   1    6    7     1    10    1.0017E+00 -2.4257E-04   1.0020E+00  0.000E+00  0.000E+00  0.000E+00  2.42268E+00  1.000E+00  1.000E+00  4.202E-04  0.000E+00  0.000E+00
   1    7    7     1    11    1.0020E+00 -6.4331E-04   1.0026E+00  0.000E+00  0.000E+00  0.000E+00  2.35796E+00  1.000E+00  1.000E+00  1.002E-03  0.000E+00  0.000E+00
   1    7    8     1    12    1.0026E+00 -2.8550E-04   1.0029E+00  0.000E+00  0.000E+00  0.000E+00  2.29396E+00  1.000E+00  1.000E+00  4.044E-04  0.000E+00  0.000E+00
   1    8    8     1    13    1.0029E+00 -7.8446E-04   1.0037E+00  0.000E+00  0.000E+00  0.000E+00  2.22924E+00  1.000E+00  1.000E+00  1.018E-03  0.000E+00  0.000E+00
   1    8    9     1    14    1.0037E+00 -3.2436E-04   1.0040E+00  0.000E+00  0.000E+00  0.000E+00  2.16524E+00  1.000E+00  1.000E+00  3.886E-04  0.000E+00  0.000E+00
   1    9    9     1    15    1.0040E+00 -9.2969E-04   1.0049E+00  0.000E+00  0.000E+00  0.000E+00  2.10052E+00  1.000E+00  1.000E+00  1.034E-03  0.000E+00  0.000E+00
   1    9   10     1    16    1.0049E+00 -3.5915E-04   1.0053E+00  0.000E+00  0.000E+00  0.000E+00  2.03652E+00  1.000E+00  1.000E+00  3.728E-04  0.000E+00  0.000E+00
   1   10   10     1    17    1.0053E+00 -2.1276E-04   1.0055E+00  0.000E+00  0.000E+00  0.000E+00  2.00978E+00  1.000E+00  1.000E+00  2.149E-04  0.000E+00  0.000E+00
   1   10   11     2     1    1.0055E+00 -4.6601E-04   1.0060E+00  0.000E+00  0.000E+00  0.000E+00  1.97911E+00  1.000E+00  1.000E+00  4.565E-04  0.000E+00  0.000E+00
   1   11   11     2     2    1.0060E+00 -1.0243E-03   1.0070E+00  0.000E+00  0.000E+00  0.000E+00  1.91502E+00  1.000E+00  1.000E+00  9.441E-04  0.000E+00  0.000E+00
   1   11   12     2     3    1.0070E+00 -5.2220E-04   1.0075E+00  0.000E+00  0.000E+00  0.000E+00  1.85102E+00  1.000E+00  1.000E+00  4.545E-04  0.000E+00  0.000E+00
   1   12   12     2     4    1.0075E+00 -1.1851E-03   1.0087E+00  0.000E+00  0.000E+00  0.000E+00  1.78557E+00  1.000E+00  1.000E+00  9.759E-04  0.000E+00  0.000E+00
   1   12   13     2     5    1.0087E+00 -5.4040E-04   1.0092E+00  0.000E+00  0.000E+00  0.000E+00  1.72157E+00  1.000E+00  1.000E+00  4.227E-04  0.000E+00  0.000E+00
   1   13   13     2     6    1.0092E+00 -1.3542E-03   1.0106E+00  0.000E+00  0.000E+00  0.000E+00  1.65611E+00  1.000E+00  1.000E+00  1.008E-03  0.000E+00  0.000E+00
   1   13   14     2     7    1.0106E+00 -5.5037E-04   1.0111E+00  0.000E+00  0.000E+00  0.000E+00  1.59211E+00  1.000E+00  1.000E+00  3.909E-04  0.000E+00  0.000E+00
   1   14   14     2     8    1.0111E+00 -1.5314E-03   1.0127E+00  0.000E+00  0.000E+00  0.000E+00  1.52666E+00  1.000E+00  1.000E+00  1.039E-03  0.000E+00  0.000E+00
   1   14   15     2     9    1.0127E+00 -5.5211E-04   1.0132E+00  0.000E+00  0.000E+00  0.000E+00  1.46266E+00  1.000E+00  1.000E+00  3.591E-04  0.000E+00  0.000E+00
   1   15   15     2    10    1.0132E+00 -1.7169E-03   1.0149E+00  0.000E+00  0.000E+00  0.000E+00  1.39720E+00  1.000E+00  1.000E+00  1.071E-03  0.000E+00  0.000E+00
   1   15   16     2    11    1.0149E+00 -5.4562E-04   1.0155E+00  0.000E+00  0.000E+00  0.000E+00  1.33320E+00  1.000E+00  1.000E+00  3.274E-04  0.000E+00  0.000E+00
   1   16   16     2    12    1.0155E+00 -1.9107E-03   1.0174E+00  0.000E+00  0.000E+00  0.000E+00  1.26775E+00  1.000E+00  1.000E+00  1.103E-03  0.000E+00  0.000E+00
   1   16   17     2    13    1.0174E+00 -5.3090E-04   1.0179E+00  0.000E+00  0.000E+00  0.000E+00  1.20375E+00  1.000E+00  1.000E+00  2.956E-04  0.000E+00  0.000E+00
   1   17   17     2    14    1.0179E+00 -2.1127E-03   1.0200E+00  0.000E+00  0.000E+00  0.000E+00  1.13829E+00  1.000E+00  1.000E+00  1.135E-03  0.000E+00  0.000E+00
   1   17   18     2    15    1.0200E+00 -5.0796E-04   1.0205E+00  0.000E+00  0.000E+00  0.000E+00  1.07429E+00  1.000E+00  1.000E+00  2.638E-04  0.000E+00  0.000E+00
   1   18   18     2    16    1.0205E+00 -1.3386E-03   1.0219E+00  0.000E+00  0.000E+00  0.000E+00  1.03111E+00  1.000E+00  1.000E+00  6.799E-04  0.000E+00  0.000E+00



 UBDSV3 SAVING "           GW ET" ON UNIT   9 AT TIME STEP    20, STRESS PERIOD   2
 UBDSV3 SAVING "    UZF RECHARGE" ON UNIT   9 AT TIME STEP    20, STRESS PERIOD   2
 UBDSV3 SAVING " SURFACE LEAKAGE" ON UNIT   9 AT TIME STEP    20, STRESS PERIOD   2
 UBDSV3 SAVING "       HORT+DUNN" ON UNIT   9 AT TIME STEP    20, STRESS PERIOD   2
 UBDSV3 SAVING "  STORAGE CHANGE" ON UNIT   9 AT TIME STEP    20, STRESS PERIOD   2


UNSATURATED ZONE PACKAGE VOLUMETRIC BUDGET FOR  TIME STEP    20 STRESS PERIOD    2
  ------------------------------------------------------------------------------



     CUMULATIVE VOLUMES      L**3       RATES FOR THIS TIME STEP      L**3/T
     ------------------                 ------------------------

           IN:                                      IN:
           ---                                      ---
        INFILTRATION =       0.0000E+00          INFILTRATION =       0.0000E+00

          OUT:                                     OUT:
          ----                                     ----
              UZF ET =       0.0000E+00                UZF ET =       0.0000E+00
        UZF RECHARGE =       0.0000E+00          UZF RECHARGE =       0.0000E+00

            IN - OUT =       0.0000E+00              IN - OUT =       0.0000E+00

          STORAGE:                                 STORAGE:
          --------                                 --------
      STORAGE CHANGE =       0.0000E+00        STORAGE CHANGE =       0.0000E+00

 PERCENT DISCREPANCY IS DIFFERENCE BETWEEN IN-OUT MINUS CHANGE IN STORAGE
 DIVIDED BY THE AVERAGE OF IN AND OUT TIMES 100

 PERCENT DISCREPANCY =           0.00     PERCENT DISCREPANCY =           0.00







 HEAD WILL BE SAVED ON UNIT   37 AT END OF TIME STEP   20, STRESS PERIOD    2

 DRAWDOWN WILL BE SAVED ON UNIT   38 AT END OF TIME STEP   20, STRESS PERIOD    2
1
  VOLUMETRIC BUDGET FOR ENTIRE MODEL AT END OF TIME STEP   20, STRESS PERIOD   2
  ------------------------------------------------------------------------------

     CUMULATIVE VOLUMES      L**3       RATES FOR THIS TIME STEP      L**3/T
     ------------------                 ------------------------

           IN:                                      IN:
           ---                                      ---
             STORAGE =       3.8033E-06               STORAGE =           0.0000
       CONSTANT HEAD =          11.7625         CONSTANT HEAD =       2.1881E-02
      STREAM LEAKAGE =           0.0000        STREAM LEAKAGE =           0.0000
        UZF RECHARGE =           0.0000          UZF RECHARGE =           0.0000
               GW ET =           0.0000                 GW ET =           0.0000
     SURFACE LEAKAGE =           0.0000       SURFACE LEAKAGE =           0.0000

            TOTAL IN =          11.7625              TOTAL IN =       2.1881E-02

          OUT:                                     OUT:
          ----                                     ----
             STORAGE =       1.3100E-06               STORAGE =           0.0000
       CONSTANT HEAD =           0.0000         CONSTANT HEAD =           0.0000
      STREAM LEAKAGE =          11.7639        STREAM LEAKAGE =       2.1883E-02
        UZF RECHARGE =           0.0000          UZF RECHARGE =           0.0000
               GW ET =           0.0000                 GW ET =           0.0000
     SURFACE LEAKAGE =           0.0000       SURFACE LEAKAGE =           0.0000

           TOTAL OUT =          11.7639             TOTAL OUT =       2.1883E-02

            IN - OUT =      -1.4601E-03              IN - OUT =      -2.1216E-06

 PERCENT DISCREPANCY =          -0.01     PERCENT DISCREPANCY =          -0.01






         TIME SUMMARY AT END OF TIME STEP   20 IN STRESS PERIOD    2
                    SECONDS     MINUTES      HOURS       DAYS        YEARS
                    -----------------------------------------------------------
   TIME STEP LENGTH  124.48      2.0747     3.45784E-02 1.44077E-03 3.94460E-06
 STRESS PERIOD TIME  536.58      8.9431     0.14905     6.21047E-03 1.70033E-05
         TOTAL TIME  537.58      8.9597     0.14933     6.22204E-03 1.70350E-05
1
 
 SOLVING FOR HEAD 
     1 CALLS TO PCG ROUTINE FOR TIME STEP    21 IN STRESS PERIOD    2
     1 TOTAL ITERATIONS

 MAXIMUM HEAD CHANGE FOR EACH ITERATION (1 INDICATES THE FIRST INNER ITERATION):

    HEAD CHANGE    HEAD CHANGE    HEAD CHANGE    HEAD CHANGE    HEAD CHANGE 
   LAYER,ROW,COL  LAYER,ROW,COL  LAYER,ROW,COL  LAYER,ROW,COL  LAYER,ROW,COL
 ---------------------------------------------------------------------------
  1  0.6945E-09
   (  1,  1, 20)

 MAXIMUM RESIDUAL FOR EACH ITERATION (1 INDICATES THE FIRST INNER ITERATION):

    RESIDUAL       RESIDUAL       RESIDUAL       RESIDUAL       RESIDUAL    
   LAYER,ROW,COL  LAYER,ROW,COL  LAYER,ROW,COL  LAYER,ROW,COL  LAYER,ROW,COL
 ---------------------------------------------------------------------------
  1 -0.2787E-05
   (  1,  3,  1)



 OUTPUT CONTROL FOR STRESS PERIOD    2   TIME STEP   21
    SAVE HEAD FOR ALL LAYERS
    SAVE DRAWDOWN FOR ALL LAYERS
    SAVE BUDGET
    PRINT BUDGET
 UBDSV1 SAVING "         STORAGE" ON UNIT   9 AT TIME STEP    21, STRESS PERIOD   2
 UBDSV2 SAVING "   CONSTANT HEAD" ON UNIT   9 AT TIME STEP    21, STRESS PERIOD   2
 UBDSV1 SAVING "FLOW RIGHT FACE " ON UNIT   9 AT TIME STEP    21, STRESS PERIOD   2
 UBDSV1 SAVING "FLOW FRONT FACE " ON UNIT   9 AT TIME STEP    21, STRESS PERIOD   2
 UBDSV1 SAVING "FLOW LOWER FACE " ON UNIT   9 AT TIME STEP    21, STRESS PERIOD   2
 UBDSV4 SAVING "  STREAM LEAKAGE" ON UNIT   9 AT TIME STEP    21, STRESS PERIOD   2



 STREAM LISTING     PERIOD      2   STEP       21

 LAYER ROW COL. STREAM  RCH.   FLOW INTO    STREAM     FLOW OUT OF   OVRLND.    DIRECT     STREAM      STREAM      STREAM     STREAM  STREAMBED   FLOW TO   CHNG. UNSAT. 
                SEG.NO.  NO.   STRM. RCH.    LOSS       STRM. RCH.   RUNOFF     PRECIP       ET         HEAD        DEPTH      WIDTH  CONDCTNC.   WAT. TAB.

   1    2    2     1     1    1.0000E+00 -8.9848E-06   1.0000E+00  0.000E+00  0.000E+00  0.000E+00  2.97978E+00  1.000E+00  1.000E+00  4.444E-04  0.000E+00  0.000E+00
   1    2    3     1     2    1.0000E+00 -3.0181E-05   1.0000E+00  0.000E+00  0.000E+00  0.000E+00  2.93755E+00  1.000E+00  1.000E+00  4.834E-04  0.000E+00  0.000E+00
   1    3    3     1     3    1.0000E+00 -1.1937E-04   1.0002E+00  0.000E+00  0.000E+00  0.000E+00  2.87283E+00  1.000E+00  1.000E+00  9.388E-04  0.000E+00  0.000E+00
   1    3    4     1     4    1.0002E+00 -8.9380E-05   1.0002E+00  0.000E+00  0.000E+00  0.000E+00  2.80883E+00  1.000E+00  1.000E+00  4.676E-04  0.000E+00  0.000E+00
   1    4    4     1     5    1.0002E+00 -2.4425E-04   1.0005E+00  0.000E+00  0.000E+00  0.000E+00  2.74411E+00  1.000E+00  1.000E+00  9.546E-04  0.000E+00  0.000E+00
   1    4    5     1     6    1.0005E+00 -1.4451E-04   1.0006E+00  0.000E+00  0.000E+00  0.000E+00  2.68011E+00  1.000E+00  1.000E+00  4.518E-04  0.000E+00  0.000E+00
   1    5    5     1     7    1.0006E+00 -3.7320E-04   1.0010E+00  0.000E+00  0.000E+00  0.000E+00  2.61540E+00  1.000E+00  1.000E+00  9.704E-04  0.000E+00  0.000E+00
   1    5    6     1     8    1.0010E+00 -1.9558E-04   1.0012E+00  0.000E+00  0.000E+00  0.000E+00  2.55140E+00  1.000E+00  1.000E+00  4.360E-04  0.000E+00  0.000E+00
   1    6    6     1     9    1.0012E+00 -5.0622E-04   1.0017E+00  0.000E+00  0.000E+00  0.000E+00  2.48668E+00  1.000E+00  1.000E+00  9.862E-04  0.000E+00  0.000E+00
   1    6    7     1    10    1.0017E+00 -2.4257E-04   1.0020E+00  0.000E+00  0.000E+00  0.000E+00  2.42268E+00  1.000E+00  1.000E+00  4.202E-04  0.000E+00  0.000E+00
   1    7    7     1    11    1.0020E+00 -6.4331E-04   1.0026E+00  0.000E+00  0.000E+00  0.000E+00  2.35796E+00  1.000E+00  1.000E+00  1.002E-03  0.000E+00  0.000E+00
   1    7    8     1    12    1.0026E+00 -2.8550E-04   1.0029E+00  0.000E+00  0.000E+00  0.000E+00  2.29396E+00  1.000E+00  1.000E+00  4.044E-04  0.000E+00  0.000E+00
   1    8    8     1    13    1.0029E+00 -7.8446E-04   1.0037E+00  0.000E+00  0.000E+00  0.000E+00  2.22924E+00  1.000E+00  1.000E+00  1.018E-03  0.000E+00  0.000E+00
   1    8    9     1    14    1.0037E+00 -3.2436E-04   1.0040E+00  0.000E+00  0.000E+00  0.000E+00  2.16524E+00  1.000E+00  1.000E+00  3.886E-04  0.000E+00  0.000E+00
   1    9    9     1    15    1.0040E+00 -9.2969E-04   1.0049E+00  0.000E+00  0.000E+00  0.000E+00  2.10052E+00  1.000E+00  1.000E+00  1.034E-03  0.000E+00  0.000E+00
   1    9   10     1    16    1.0049E+00 -3.5915E-04   1.0053E+00  0.000E+00  0.000E+00  0.000E+00  2.03652E+00  1.000E+00  1.000E+00  3.728E-04  0.000E+00  0.000E+00
   1   10   10     1    17    1.0053E+00 -2.1276E-04   1.0055E+00  0.000E+00  0.000E+00  0.000E+00  2.00978E+00  1.000E+00  1.000E+00  2.149E-04  0.000E+00  0.000E+00
   1   10   11     2     1    1.0055E+00 -4.6601E-04   1.0060E+00  0.000E+00  0.000E+00  0.000E+00  1.97911E+00  1.000E+00  1.000E+00  4.565E-04  0.000E+00  0.000E+00
   1   11   11     2     2    1.0060E+00 -1.0243E-03   1.0070E+00  0.000E+00  0.000E+00  0.000E+00  1.91502E+00  1.000E+00  1.000E+00  9.441E-04  0.000E+00  0.000E+00
   1   11   12     2     3    1.0070E+00 -5.2220E-04   1.0075E+00  0.000E+00  0.000E+00  0.000E+00  1.85102E+00  1.000E+00  1.000E+00  4.545E-04  0.000E+00  0.000E+00
   1   12   12     2     4    1.0075E+00 -1.1851E-03   1.0087E+00  0.000E+00  0.000E+00  0.000E+00  1.78557E+00  1.000E+00  1.000E+00  9.759E-04  0.000E+00  0.000E+00
   1   12   13     2     5    1.0087E+00 -5.4040E-04   1.0092E+00  0.000E+00  0.000E+00  0.000E+00  1.72157E+00  1.000E+00  1.000E+00  4.227E-04  0.000E+00  0.000E+00
   1   13   13     2     6    1.0092E+00 -1.3542E-03   1.0106E+00  0.000E+00  0.000E+00  0.000E+00  1.65611E+00  1.000E+00  1.000E+00  1.008E-03  0.000E+00  0.000E+00
   1   13   14     2     7    1.0106E+00 -5.5037E-04   1.0111E+00  0.000E+00  0.000E+00  0.000E+00  1.59211E+00  1.000E+00  1.000E+00  3.909E-04  0.000E+00  0.000E+00
   1   14   14     2     8    1.0111E+00 -1.5314E-03   1.0127E+00  0.000E+00  0.000E+00  0.000E+00  1.52666E+00  1.000E+00  1.000E+00  1.039E-03  0.000E+00  0.000E+00
   1   14   15     2     9    1.0127E+00 -5.5211E-04   1.0132E+00  0.000E+00  0.000E+00  0.000E+00  1.46266E+00  1.000E+00  1.000E+00  3.591E-04  0.000E+00  0.000E+00
   1   15   15     2    10    1.0132E+00 -1.7169E-03   1.0149E+00  0.000E+00  0.000E+00  0.000E+00  1.39720E+00  1.000E+00  1.000E+00  1.071E-03  0.000E+00  0.000E+00
   1   15   16     2    11    1.0149E+00 -5.4562E-04   1.0155E+00  0.000E+00  0.000E+00  0.000E+00  1.33320E+00  1.000E+00  1.000E+00  3.274E-04  0.000E+00  0.000E+00
   1   16   16     2    12    1.0155E+00 -1.9107E-03   1.0174E+00  0.000E+00  0.000E+00  0.000E+00  1.26775E+00  1.000E+00  1.000E+00  1.103E-03  0.000E+00  0.000E+00
   1   16   17     2    13    1.0174E+00 -5.3090E-04   1.0179E+00  0.000E+00  0.000E+00  0.000E+00  1.20375E+00  1.000E+00  1.000E+00  2.956E-04  0.000E+00  0.000E+00
   1   17   17     2    14    1.0179E+00 -2.1127E-03   1.0200E+00  0.000E+00  0.000E+00  0.000E+00  1.13829E+00  1.000E+00  1.000E+00  1.135E-03  0.000E+00  0.000E+00
   1   17   18     2    15    1.0200E+00 -5.0796E-04   1.0205E+00  0.000E+00  0.000E+00  0.000E+00  1.07429E+00  1.000E+00  1.000E+00  2.638E-04  0.000E+00  0.000E+00
   1   18   18     2    16    1.0205E+00 -1.3386E-03   1.0219E+00  0.000E+00  0.000E+00  0.000E+00  1.03111E+00  1.000E+00  1.000E+00  6.799E-04  0.000E+00  0.000E+00



 UBDSV3 SAVING "           GW ET" ON UNIT   9 AT TIME STEP    21, STRESS PERIOD   2
 UBDSV3 SAVING "    UZF RECHARGE" ON UNIT   9 AT TIME STEP    21, STRESS PERIOD   2
 UBDSV3 SAVING " SURFACE LEAKAGE" ON UNIT   9 AT TIME STEP    21, STRESS PERIOD   2
 UBDSV3 SAVING "       HORT+DUNN" ON UNIT   9 AT TIME STEP    21, STRESS PERIOD   2
 UBDSV3 SAVING "  STORAGE CHANGE" ON UNIT   9 AT TIME STEP    21, STRESS PERIOD   2


UNSATURATED ZONE PACKAGE VOLUMETRIC BUDGET FOR  TIME STEP    21 STRESS PERIOD    2
  ------------------------------------------------------------------------------



     CUMULATIVE VOLUMES      L**3       RATES FOR THIS TIME STEP      L**3/T
     ------------------                 ------------------------

           IN:                                      IN:
           ---                                      ---
        INFILTRATION =       0.0000E+00          INFILTRATION =       0.0000E+00

          OUT:                                     OUT:
          ----                                     ----
              UZF ET =       0.0000E+00                UZF ET =       0.0000E+00
        UZF RECHARGE =       0.0000E+00          UZF RECHARGE =       0.0000E+00

            IN - OUT =       0.0000E+00              IN - OUT =       0.0000E+00

          STORAGE:                                 STORAGE:
          --------                                 --------
      STORAGE CHANGE =       0.0000E+00        STORAGE CHANGE =       0.0000E+00

 PERCENT DISCREPANCY IS DIFFERENCE BETWEEN IN-OUT MINUS CHANGE IN STORAGE
 DIVIDED BY THE AVERAGE OF IN AND OUT TIMES 100

 PERCENT DISCREPANCY =           0.00     PERCENT DISCREPANCY =           0.00







 HEAD WILL BE SAVED ON UNIT   37 AT END OF TIME STEP   21, STRESS PERIOD    2

 DRAWDOWN WILL BE SAVED ON UNIT   38 AT END OF TIME STEP   21, STRESS PERIOD    2
1
  VOLUMETRIC BUDGET FOR ENTIRE MODEL AT END OF TIME STEP   21, STRESS PERIOD   2
  ------------------------------------------------------------------------------

     CUMULATIVE VOLUMES      L**3       RATES FOR THIS TIME STEP      L**3/T
     ------------------                 ------------------------

           IN:                                      IN:
           ---                                      ---
             STORAGE =       3.8033E-06               STORAGE =           0.0000
       CONSTANT HEAD =          15.3034         CONSTANT HEAD =       2.1881E-02
      STREAM LEAKAGE =           0.0000        STREAM LEAKAGE =           0.0000
        UZF RECHARGE =           0.0000          UZF RECHARGE =           0.0000
               GW ET =           0.0000                 GW ET =           0.0000
     SURFACE LEAKAGE =           0.0000       SURFACE LEAKAGE =           0.0000

            TOTAL IN =          15.3034              TOTAL IN =       2.1881E-02

          OUT:                                     OUT:
          ----                                     ----
             STORAGE =       1.3100E-06               STORAGE =           0.0000
       CONSTANT HEAD =           0.0000         CONSTANT HEAD =           0.0000
      STREAM LEAKAGE =          15.3052        STREAM LEAKAGE =       2.1883E-02
        UZF RECHARGE =           0.0000          UZF RECHARGE =           0.0000
               GW ET =           0.0000                 GW ET =           0.0000
     SURFACE LEAKAGE =           0.0000       SURFACE LEAKAGE =           0.0000

           TOTAL OUT =          15.3052             TOTAL OUT =       2.1883E-02

            IN - OUT =      -1.7805E-03              IN - OUT =      -1.9781E-06

 PERCENT DISCREPANCY =          -0.01     PERCENT DISCREPANCY =          -0.01






         TIME SUMMARY AT END OF TIME STEP   21 IN STRESS PERIOD    2
                    SECONDS     MINUTES      HOURS       DAYS        YEARS
                    -----------------------------------------------------------
   TIME STEP LENGTH  161.83      2.6971     4.49519E-02 1.87300E-03 5.12798E-06
 STRESS PERIOD TIME  698.41      11.640     0.19400     8.08346E-03 2.21313E-05
         TOTAL TIME  699.41      11.657     0.19428     8.09504E-03 2.21630E-05
1
 
 SOLVING FOR HEAD 
     1 CALLS TO PCG ROUTINE FOR TIME STEP    22 IN STRESS PERIOD    2
     1 TOTAL ITERATIONS

 MAXIMUM HEAD CHANGE FOR EACH ITERATION (1 INDICATES THE FIRST INNER ITERATION):

    HEAD CHANGE    HEAD CHANGE    HEAD CHANGE    HEAD CHANGE    HEAD CHANGE 
   LAYER,ROW,COL  LAYER,ROW,COL  LAYER,ROW,COL  LAYER,ROW,COL  LAYER,ROW,COL
 ---------------------------------------------------------------------------
  1 -0.7191E-09
   (  2,  1, 20)

 MAXIMUM RESIDUAL FOR EACH ITERATION (1 INDICATES THE FIRST INNER ITERATION):

    RESIDUAL       RESIDUAL       RESIDUAL       RESIDUAL       RESIDUAL    
   LAYER,ROW,COL  LAYER,ROW,COL  LAYER,ROW,COL  LAYER,ROW,COL  LAYER,ROW,COL
 ---------------------------------------------------------------------------
  1 -0.2602E-05
   (  1,  1,  3)



 OUTPUT CONTROL FOR STRESS PERIOD    2   TIME STEP   22
    SAVE HEAD FOR ALL LAYERS
    SAVE DRAWDOWN FOR ALL LAYERS
    SAVE BUDGET
    PRINT BUDGET
 UBDSV1 SAVING "         STORAGE" ON UNIT   9 AT TIME STEP    22, STRESS PERIOD   2
 UBDSV2 SAVING "   CONSTANT HEAD" ON UNIT   9 AT TIME STEP    22, STRESS PERIOD   2
 UBDSV1 SAVING "FLOW RIGHT FACE " ON UNIT   9 AT TIME STEP    22, STRESS PERIOD   2
 UBDSV1 SAVING "FLOW FRONT FACE " ON UNIT   9 AT TIME STEP    22, STRESS PERIOD   2
 UBDSV1 SAVING "FLOW LOWER FACE " ON UNIT   9 AT TIME STEP    22, STRESS PERIOD   2
 UBDSV4 SAVING "  STREAM LEAKAGE" ON UNIT   9 AT TIME STEP    22, STRESS PERIOD   2



 STREAM LISTING     PERIOD      2   STEP       22

 LAYER ROW COL. STREAM  RCH.   FLOW INTO    STREAM     FLOW OUT OF   OVRLND.    DIRECT     STREAM      STREAM      STREAM     STREAM  STREAMBED   FLOW TO   CHNG. UNSAT. 
                SEG.NO.  NO.   STRM. RCH.    LOSS       STRM. RCH.   RUNOFF     PRECIP       ET         HEAD        DEPTH      WIDTH  CONDCTNC.   WAT. TAB.

   1    2    2     1     1    1.0000E+00 -8.9848E-06   1.0000E+00  0.000E+00  0.000E+00  0.000E+00  2.97978E+00  1.000E+00  1.000E+00  4.444E-04  0.000E+00  0.000E+00
   1    2    3     1     2    1.0000E+00 -3.0181E-05   1.0000E+00  0.000E+00  0.000E+00  0.000E+00  2.93755E+00  1.000E+00  1.000E+00  4.834E-04  0.000E+00  0.000E+00
   1    3    3     1     3    1.0000E+00 -1.1937E-04   1.0002E+00  0.000E+00  0.000E+00  0.000E+00  2.87283E+00  1.000E+00  1.000E+00  9.388E-04  0.000E+00  0.000E+00
   1    3    4     1     4    1.0002E+00 -8.9380E-05   1.0002E+00  0.000E+00  0.000E+00  0.000E+00  2.80883E+00  1.000E+00  1.000E+00  4.676E-04  0.000E+00  0.000E+00
   1    4    4     1     5    1.0002E+00 -2.4425E-04   1.0005E+00  0.000E+00  0.000E+00  0.000E+00  2.74411E+00  1.000E+00  1.000E+00  9.546E-04  0.000E+00  0.000E+00
   1    4    5     1     6    1.0005E+00 -1.4451E-04   1.0006E+00  0.000E+00  0.000E+00  0.000E+00  2.68011E+00  1.000E+00  1.000E+00  4.518E-04  0.000E+00  0.000E+00
   1    5    5     1     7    1.0006E+00 -3.7320E-04   1.0010E+00  0.000E+00  0.000E+00  0.000E+00  2.61540E+00  1.000E+00  1.000E+00  9.704E-04  0.000E+00  0.000E+00
   1    5    6     1     8    1.0010E+00 -1.9558E-04   1.0012E+00  0.000E+00  0.000E+00  0.000E+00  2.55140E+00  1.000E+00  1.000E+00  4.360E-04  0.000E+00  0.000E+00
   1    6    6     1     9    1.0012E+00 -5.0622E-04   1.0017E+00  0.000E+00  0.000E+00  0.000E+00  2.48668E+00  1.000E+00  1.000E+00  9.862E-04  0.000E+00  0.000E+00
   1    6    7     1    10    1.0017E+00 -2.4257E-04   1.0020E+00  0.000E+00  0.000E+00  0.000E+00  2.42268E+00  1.000E+00  1.000E+00  4.202E-04  0.000E+00  0.000E+00
   1    7    7     1    11    1.0020E+00 -6.4331E-04   1.0026E+00  0.000E+00  0.000E+00  0.000E+00  2.35796E+00  1.000E+00  1.000E+00  1.002E-03  0.000E+00  0.000E+00
   1    7    8     1    12    1.0026E+00 -2.8550E-04   1.0029E+00  0.000E+00  0.000E+00  0.000E+00  2.29396E+00  1.000E+00  1.000E+00  4.044E-04  0.000E+00  0.000E+00
   1    8    8     1    13    1.0029E+00 -7.8446E-04   1.0037E+00  0.000E+00  0.000E+00  0.000E+00  2.22924E+00  1.000E+00  1.000E+00  1.018E-03  0.000E+00  0.000E+00
   1    8    9     1    14    1.0037E+00 -3.2436E-04   1.0040E+00  0.000E+00  0.000E+00  0.000E+00  2.16524E+00  1.000E+00  1.000E+00  3.886E-04  0.000E+00  0.000E+00
   1    9    9     1    15    1.0040E+00 -9.2969E-04   1.0049E+00  0.000E+00  0.000E+00  0.000E+00  2.10052E+00  1.000E+00  1.000E+00  1.034E-03  0.000E+00  0.000E+00
   1    9   10     1    16    1.0049E+00 -3.5915E-04   1.0053E+00  0.000E+00  0.000E+00  0.000E+00  2.03652E+00  1.000E+00  1.000E+00  3.728E-04  0.000E+00  0.000E+00
   1   10   10     1    17    1.0053E+00 -2.1276E-04   1.0055E+00  0.000E+00  0.000E+00  0.000E+00  2.00978E+00  1.000E+00  1.000E+00  2.149E-04  0.000E+00  0.000E+00
   1   10   11     2     1    1.0055E+00 -4.6601E-04   1.0060E+00  0.000E+00  0.000E+00  0.000E+00  1.97911E+00  1.000E+00  1.000E+00  4.565E-04  0.000E+00  0.000E+00
   1   11   11     2     2    1.0060E+00 -1.0243E-03   1.0070E+00  0.000E+00  0.000E+00  0.000E+00  1.91502E+00  1.000E+00  1.000E+00  9.441E-04  0.000E+00  0.000E+00
   1   11   12     2     3    1.0070E+00 -5.2220E-04   1.0075E+00  0.000E+00  0.000E+00  0.000E+00  1.85102E+00  1.000E+00  1.000E+00  4.545E-04  0.000E+00  0.000E+00
   1   12   12     2     4    1.0075E+00 -1.1851E-03   1.0087E+00  0.000E+00  0.000E+00  0.000E+00  1.78557E+00  1.000E+00  1.000E+00  9.759E-04  0.000E+00  0.000E+00
   1   12   13     2     5    1.0087E+00 -5.4040E-04   1.0092E+00  0.000E+00  0.000E+00  0.000E+00  1.72157E+00  1.000E+00  1.000E+00  4.227E-04  0.000E+00  0.000E+00
   1   13   13     2     6    1.0092E+00 -1.3542E-03   1.0106E+00  0.000E+00  0.000E+00  0.000E+00  1.65611E+00  1.000E+00  1.000E+00  1.008E-03  0.000E+00  0.000E+00
   1   13   14     2     7    1.0106E+00 -5.5037E-04   1.0111E+00  0.000E+00  0.000E+00  0.000E+00  1.59211E+00  1.000E+00  1.000E+00  3.909E-04  0.000E+00  0.000E+00
   1   14   14     2     8    1.0111E+00 -1.5314E-03   1.0127E+00  0.000E+00  0.000E+00  0.000E+00  1.52666E+00  1.000E+00  1.000E+00  1.039E-03  0.000E+00  0.000E+00
   1   14   15     2     9    1.0127E+00 -5.5211E-04   1.0132E+00  0.000E+00  0.000E+00  0.000E+00  1.46266E+00  1.000E+00  1.000E+00  3.591E-04  0.000E+00  0.000E+00
   1   15   15     2    10    1.0132E+00 -1.7169E-03   1.0149E+00  0.000E+00  0.000E+00  0.000E+00  1.39720E+00  1.000E+00  1.000E+00  1.071E-03  0.000E+00  0.000E+00
   1   15   16     2    11    1.0149E+00 -5.4562E-04   1.0155E+00  0.000E+00  0.000E+00  0.000E+00  1.33320E+00  1.000E+00  1.000E+00  3.274E-04  0.000E+00  0.000E+00
   1   16   16     2    12    1.0155E+00 -1.9107E-03   1.0174E+00  0.000E+00  0.000E+00  0.000E+00  1.26775E+00  1.000E+00  1.000E+00  1.103E-03  0.000E+00  0.000E+00
   1   16   17     2    13    1.0174E+00 -5.3090E-04   1.0179E+00  0.000E+00  0.000E+00  0.000E+00  1.20375E+00  1.000E+00  1.000E+00  2.956E-04  0.000E+00  0.000E+00
   1   17   17     2    14    1.0179E+00 -2.1127E-03   1.0200E+00  0.000E+00  0.000E+00  0.000E+00  1.13829E+00  1.000E+00  1.000E+00  1.135E-03  0.000E+00  0.000E+00
   1   17   18     2    15    1.0200E+00 -5.0796E-04   1.0205E+00  0.000E+00  0.000E+00  0.000E+00  1.07429E+00  1.000E+00  1.000E+00  2.638E-04  0.000E+00  0.000E+00
   1   18   18     2    16    1.0205E+00 -1.3386E-03   1.0219E+00  0.000E+00  0.000E+00  0.000E+00  1.03111E+00  1.000E+00  1.000E+00  6.799E-04  0.000E+00  0.000E+00



 UBDSV3 SAVING "           GW ET" ON UNIT   9 AT TIME STEP    22, STRESS PERIOD   2
 UBDSV3 SAVING "    UZF RECHARGE" ON UNIT   9 AT TIME STEP    22, STRESS PERIOD   2
 UBDSV3 SAVING " SURFACE LEAKAGE" ON UNIT   9 AT TIME STEP    22, STRESS PERIOD   2
 UBDSV3 SAVING "       HORT+DUNN" ON UNIT   9 AT TIME STEP    22, STRESS PERIOD   2
 UBDSV3 SAVING "  STORAGE CHANGE" ON UNIT   9 AT TIME STEP    22, STRESS PERIOD   2


UNSATURATED ZONE PACKAGE VOLUMETRIC BUDGET FOR  TIME STEP    22 STRESS PERIOD    2
  ------------------------------------------------------------------------------



     CUMULATIVE VOLUMES      L**3       RATES FOR THIS TIME STEP      L**3/T
     ------------------                 ------------------------

           IN:                                      IN:
           ---                                      ---
        INFILTRATION =       0.0000E+00          INFILTRATION =       0.0000E+00

          OUT:                                     OUT:
          ----                                     ----
              UZF ET =       0.0000E+00                UZF ET =       0.0000E+00
        UZF RECHARGE =       0.0000E+00          UZF RECHARGE =       0.0000E+00

            IN - OUT =       0.0000E+00              IN - OUT =       0.0000E+00

          STORAGE:                                 STORAGE:
          --------                                 --------
      STORAGE CHANGE =       0.0000E+00        STORAGE CHANGE =       0.0000E+00

 PERCENT DISCREPANCY IS DIFFERENCE BETWEEN IN-OUT MINUS CHANGE IN STORAGE
 DIVIDED BY THE AVERAGE OF IN AND OUT TIMES 100

 PERCENT DISCREPANCY =           0.00     PERCENT DISCREPANCY =           0.00







 HEAD WILL BE SAVED ON UNIT   37 AT END OF TIME STEP   22, STRESS PERIOD    2

 DRAWDOWN WILL BE SAVED ON UNIT   38 AT END OF TIME STEP   22, STRESS PERIOD    2
1
  VOLUMETRIC BUDGET FOR ENTIRE MODEL AT END OF TIME STEP   22, STRESS PERIOD   2
  ------------------------------------------------------------------------------

     CUMULATIVE VOLUMES      L**3       RATES FOR THIS TIME STEP      L**3/T
     ------------------                 ------------------------

           IN:                                      IN:
           ---                                      ---
             STORAGE =       3.8033E-06               STORAGE =           0.0000
       CONSTANT HEAD =          19.9066         CONSTANT HEAD =       2.1881E-02
      STREAM LEAKAGE =           0.0000        STREAM LEAKAGE =           0.0000
        UZF RECHARGE =           0.0000          UZF RECHARGE =           0.0000
               GW ET =           0.0000                 GW ET =           0.0000
     SURFACE LEAKAGE =           0.0000       SURFACE LEAKAGE =           0.0000

            TOTAL IN =          19.9066              TOTAL IN =       2.1881E-02

          OUT:                                     OUT:
          ----                                     ----
             STORAGE =       1.3100E-06               STORAGE =           0.0000
       CONSTANT HEAD =           0.0000         CONSTANT HEAD =           0.0000
      STREAM LEAKAGE =          19.9088        STREAM LEAKAGE =       2.1883E-02
        UZF RECHARGE =           0.0000          UZF RECHARGE =           0.0000
               GW ET =           0.0000                 GW ET =           0.0000
     SURFACE LEAKAGE =           0.0000       SURFACE LEAKAGE =           0.0000

           TOTAL OUT =          19.9088             TOTAL OUT =       2.1883E-02

            IN - OUT =      -2.1744E-03              IN - OUT =      -1.8701E-06

 PERCENT DISCREPANCY =          -0.01     PERCENT DISCREPANCY =          -0.01






         TIME SUMMARY AT END OF TIME STEP   22 IN STRESS PERIOD    2
                    SECONDS     MINUTES      HOURS       DAYS        YEARS
                    -----------------------------------------------------------
   TIME STEP LENGTH  210.37      3.5062     5.84374E-02 2.43489E-03 6.66638E-06
 STRESS PERIOD TIME  908.79      15.146     0.25244     1.05184E-02 2.87977E-05
         TOTAL TIME  909.79      15.163     0.25272     1.05299E-02 2.88294E-05
1
 
 SOLVING FOR HEAD 
     1 CALLS TO PCG ROUTINE FOR TIME STEP    23 IN STRESS PERIOD    2
     1 TOTAL ITERATIONS

 MAXIMUM HEAD CHANGE FOR EACH ITERATION (1 INDICATES THE FIRST INNER ITERATION):

    HEAD CHANGE    HEAD CHANGE    HEAD CHANGE    HEAD CHANGE    HEAD CHANGE 
   LAYER,ROW,COL  LAYER,ROW,COL  LAYER,ROW,COL  LAYER,ROW,COL  LAYER,ROW,COL
 ---------------------------------------------------------------------------
  1  0.5873E-09
   (  1,  1, 20)

 MAXIMUM RESIDUAL FOR EACH ITERATION (1 INDICATES THE FIRST INNER ITERATION):

    RESIDUAL       RESIDUAL       RESIDUAL       RESIDUAL       RESIDUAL    
   LAYER,ROW,COL  LAYER,ROW,COL  LAYER,ROW,COL  LAYER,ROW,COL  LAYER,ROW,COL
 ---------------------------------------------------------------------------
  1 -0.2376E-05
   (  1,  3,  1)



 OUTPUT CONTROL FOR STRESS PERIOD    2   TIME STEP   23
    SAVE HEAD FOR ALL LAYERS
    SAVE DRAWDOWN FOR ALL LAYERS
    SAVE BUDGET
    PRINT BUDGET
 UBDSV1 SAVING "         STORAGE" ON UNIT   9 AT TIME STEP    23, STRESS PERIOD   2
 UBDSV2 SAVING "   CONSTANT HEAD" ON UNIT   9 AT TIME STEP    23, STRESS PERIOD   2
 UBDSV1 SAVING "FLOW RIGHT FACE " ON UNIT   9 AT TIME STEP    23, STRESS PERIOD   2
 UBDSV1 SAVING "FLOW FRONT FACE " ON UNIT   9 AT TIME STEP    23, STRESS PERIOD   2
 UBDSV1 SAVING "FLOW LOWER FACE " ON UNIT   9 AT TIME STEP    23, STRESS PERIOD   2
 UBDSV4 SAVING "  STREAM LEAKAGE" ON UNIT   9 AT TIME STEP    23, STRESS PERIOD   2



 STREAM LISTING     PERIOD      2   STEP       23

 LAYER ROW COL. STREAM  RCH.   FLOW INTO    STREAM     FLOW OUT OF   OVRLND.    DIRECT     STREAM      STREAM      STREAM     STREAM  STREAMBED   FLOW TO   CHNG. UNSAT. 
                SEG.NO.  NO.   STRM. RCH.    LOSS       STRM. RCH.   RUNOFF     PRECIP       ET         HEAD        DEPTH      WIDTH  CONDCTNC.   WAT. TAB.

   1    2    2     1     1    1.0000E+00 -8.9848E-06   1.0000E+00  0.000E+00  0.000E+00  0.000E+00  2.97978E+00  1.000E+00  1.000E+00  4.444E-04  0.000E+00  0.000E+00
   1    2    3     1     2    1.0000E+00 -3.0181E-05   1.0000E+00  0.000E+00  0.000E+00  0.000E+00  2.93755E+00  1.000E+00  1.000E+00  4.834E-04  0.000E+00  0.000E+00
   1    3    3     1     3    1.0000E+00 -1.1937E-04   1.0002E+00  0.000E+00  0.000E+00  0.000E+00  2.87283E+00  1.000E+00  1.000E+00  9.388E-04  0.000E+00  0.000E+00
   1    3    4     1     4    1.0002E+00 -8.9380E-05   1.0002E+00  0.000E+00  0.000E+00  0.000E+00  2.80883E+00  1.000E+00  1.000E+00  4.676E-04  0.000E+00  0.000E+00
   1    4    4     1     5    1.0002E+00 -2.4425E-04   1.0005E+00  0.000E+00  0.000E+00  0.000E+00  2.74411E+00  1.000E+00  1.000E+00  9.546E-04  0.000E+00  0.000E+00
   1    4    5     1     6    1.0005E+00 -1.4451E-04   1.0006E+00  0.000E+00  0.000E+00  0.000E+00  2.68011E+00  1.000E+00  1.000E+00  4.518E-04  0.000E+00  0.000E+00
   1    5    5     1     7    1.0006E+00 -3.7320E-04   1.0010E+00  0.000E+00  0.000E+00  0.000E+00  2.61540E+00  1.000E+00  1.000E+00  9.704E-04  0.000E+00  0.000E+00
   1    5    6     1     8    1.0010E+00 -1.9558E-04   1.0012E+00  0.000E+00  0.000E+00  0.000E+00  2.55140E+00  1.000E+00  1.000E+00  4.360E-04  0.000E+00  0.000E+00
   1    6    6     1     9    1.0012E+00 -5.0622E-04   1.0017E+00  0.000E+00  0.000E+00  0.000E+00  2.48668E+00  1.000E+00  1.000E+00  9.862E-04  0.000E+00  0.000E+00
   1    6    7     1    10    1.0017E+00 -2.4257E-04   1.0020E+00  0.000E+00  0.000E+00  0.000E+00  2.42268E+00  1.000E+00  1.000E+00  4.202E-04  0.000E+00  0.000E+00
   1    7    7     1    11    1.0020E+00 -6.4331E-04   1.0026E+00  0.000E+00  0.000E+00  0.000E+00  2.35796E+00  1.000E+00  1.000E+00  1.002E-03  0.000E+00  0.000E+00
   1    7    8     1    12    1.0026E+00 -2.8550E-04   1.0029E+00  0.000E+00  0.000E+00  0.000E+00  2.29396E+00  1.000E+00  1.000E+00  4.044E-04  0.000E+00  0.000E+00
   1    8    8     1    13    1.0029E+00 -7.8446E-04   1.0037E+00  0.000E+00  0.000E+00  0.000E+00  2.22924E+00  1.000E+00  1.000E+00  1.018E-03  0.000E+00  0.000E+00
   1    8    9     1    14    1.0037E+00 -3.2436E-04   1.0040E+00  0.000E+00  0.000E+00  0.000E+00  2.16524E+00  1.000E+00  1.000E+00  3.886E-04  0.000E+00  0.000E+00
   1    9    9     1    15    1.0040E+00 -9.2969E-04   1.0049E+00  0.000E+00  0.000E+00  0.000E+00  2.10052E+00  1.000E+00  1.000E+00  1.034E-03  0.000E+00  0.000E+00
   1    9   10     1    16    1.0049E+00 -3.5915E-04   1.0053E+00  0.000E+00  0.000E+00  0.000E+00  2.03652E+00  1.000E+00  1.000E+00  3.728E-04  0.000E+00  0.000E+00
   1   10   10     1    17    1.0053E+00 -2.1276E-04   1.0055E+00  0.000E+00  0.000E+00  0.000E+00  2.00978E+00  1.000E+00  1.000E+00  2.149E-04  0.000E+00  0.000E+00
   1   10   11     2     1    1.0055E+00 -4.6601E-04   1.0060E+00  0.000E+00  0.000E+00  0.000E+00  1.97911E+00  1.000E+00  1.000E+00  4.565E-04  0.000E+00  0.000E+00
   1   11   11     2     2    1.0060E+00 -1.0243E-03   1.0070E+00  0.000E+00  0.000E+00  0.000E+00  1.91502E+00  1.000E+00  1.000E+00  9.441E-04  0.000E+00  0.000E+00
   1   11   12     2     3    1.0070E+00 -5.2220E-04   1.0075E+00  0.000E+00  0.000E+00  0.000E+00  1.85102E+00  1.000E+00  1.000E+00  4.545E-04  0.000E+00  0.000E+00
   1   12   12     2     4    1.0075E+00 -1.1851E-03   1.0087E+00  0.000E+00  0.000E+00  0.000E+00  1.78557E+00  1.000E+00  1.000E+00  9.759E-04  0.000E+00  0.000E+00
   1   12   13     2     5    1.0087E+00 -5.4040E-04   1.0092E+00  0.000E+00  0.000E+00  0.000E+00  1.72157E+00  1.000E+00  1.000E+00  4.227E-04  0.000E+00  0.000E+00
   1   13   13     2     6    1.0092E+00 -1.3542E-03   1.0106E+00  0.000E+00  0.000E+00  0.000E+00  1.65611E+00  1.000E+00  1.000E+00  1.008E-03  0.000E+00  0.000E+00
   1   13   14     2     7    1.0106E+00 -5.5037E-04   1.0111E+00  0.000E+00  0.000E+00  0.000E+00  1.59211E+00  1.000E+00  1.000E+00  3.909E-04  0.000E+00  0.000E+00
   1   14   14     2     8    1.0111E+00 -1.5314E-03   1.0127E+00  0.000E+00  0.000E+00  0.000E+00  1.52666E+00  1.000E+00  1.000E+00  1.039E-03  0.000E+00  0.000E+00
   1   14   15     2     9    1.0127E+00 -5.5211E-04   1.0132E+00  0.000E+00  0.000E+00  0.000E+00  1.46266E+00  1.000E+00  1.000E+00  3.591E-04  0.000E+00  0.000E+00
   1   15   15     2    10    1.0132E+00 -1.7169E-03   1.0149E+00  0.000E+00  0.000E+00  0.000E+00  1.39720E+00  1.000E+00  1.000E+00  1.071E-03  0.000E+00  0.000E+00
   1   15   16     2    11    1.0149E+00 -5.4562E-04   1.0155E+00  0.000E+00  0.000E+00  0.000E+00  1.33320E+00  1.000E+00  1.000E+00  3.274E-04  0.000E+00  0.000E+00
   1   16   16     2    12    1.0155E+00 -1.9107E-03   1.0174E+00  0.000E+00  0.000E+00  0.000E+00  1.26775E+00  1.000E+00  1.000E+00  1.103E-03  0.000E+00  0.000E+00
   1   16   17     2    13    1.0174E+00 -5.3090E-04   1.0179E+00  0.000E+00  0.000E+00  0.000E+00  1.20375E+00  1.000E+00  1.000E+00  2.956E-04  0.000E+00  0.000E+00
   1   17   17     2    14    1.0179E+00 -2.1127E-03   1.0200E+00  0.000E+00  0.000E+00  0.000E+00  1.13829E+00  1.000E+00  1.000E+00  1.135E-03  0.000E+00  0.000E+00
   1   17   18     2    15    1.0200E+00 -5.0796E-04   1.0205E+00  0.000E+00  0.000E+00  0.000E+00  1.07429E+00  1.000E+00  1.000E+00  2.638E-04  0.000E+00  0.000E+00
   1   18   18     2    16    1.0205E+00 -1.3386E-03   1.0219E+00  0.000E+00  0.000E+00  0.000E+00  1.03111E+00  1.000E+00  1.000E+00  6.799E-04  0.000E+00  0.000E+00



 UBDSV3 SAVING "           GW ET" ON UNIT   9 AT TIME STEP    23, STRESS PERIOD   2
 UBDSV3 SAVING "    UZF RECHARGE" ON UNIT   9 AT TIME STEP    23, STRESS PERIOD   2
 UBDSV3 SAVING " SURFACE LEAKAGE" ON UNIT   9 AT TIME STEP    23, STRESS PERIOD   2
 UBDSV3 SAVING "       HORT+DUNN" ON UNIT   9 AT TIME STEP    23, STRESS PERIOD   2
 UBDSV3 SAVING "  STORAGE CHANGE" ON UNIT   9 AT TIME STEP    23, STRESS PERIOD   2


UNSATURATED ZONE PACKAGE VOLUMETRIC BUDGET FOR  TIME STEP    23 STRESS PERIOD    2
  ------------------------------------------------------------------------------



     CUMULATIVE VOLUMES      L**3       RATES FOR THIS TIME STEP      L**3/T
     ------------------                 ------------------------

           IN:                                      IN:
           ---                                      ---
        INFILTRATION =       0.0000E+00          INFILTRATION =       0.0000E+00

          OUT:                                     OUT:
          ----                                     ----
              UZF ET =       0.0000E+00                UZF ET =       0.0000E+00
        UZF RECHARGE =       0.0000E+00          UZF RECHARGE =       0.0000E+00

            IN - OUT =       0.0000E+00              IN - OUT =       0.0000E+00

          STORAGE:                                 STORAGE:
          --------                                 --------
      STORAGE CHANGE =       0.0000E+00        STORAGE CHANGE =       0.0000E+00

 PERCENT DISCREPANCY IS DIFFERENCE BETWEEN IN-OUT MINUS CHANGE IN STORAGE
 DIVIDED BY THE AVERAGE OF IN AND OUT TIMES 100

 PERCENT DISCREPANCY =           0.00     PERCENT DISCREPANCY =           0.00







 HEAD WILL BE SAVED ON UNIT   37 AT END OF TIME STEP   23, STRESS PERIOD    2

 DRAWDOWN WILL BE SAVED ON UNIT   38 AT END OF TIME STEP   23, STRESS PERIOD    2
1
  VOLUMETRIC BUDGET FOR ENTIRE MODEL AT END OF TIME STEP   23, STRESS PERIOD   2
  ------------------------------------------------------------------------------

     CUMULATIVE VOLUMES      L**3       RATES FOR THIS TIME STEP      L**3/T
     ------------------                 ------------------------

           IN:                                      IN:
           ---                                      ---
             STORAGE =       3.8033E-06               STORAGE =           0.0000
       CONSTANT HEAD =          25.8908         CONSTANT HEAD =       2.1881E-02
      STREAM LEAKAGE =           0.0000        STREAM LEAKAGE =           0.0000
        UZF RECHARGE =           0.0000          UZF RECHARGE =           0.0000
               GW ET =           0.0000                 GW ET =           0.0000
     SURFACE LEAKAGE =           0.0000       SURFACE LEAKAGE =           0.0000

            TOTAL IN =          25.8908              TOTAL IN =       2.1881E-02

          OUT:                                     OUT:
          ----                                     ----
             STORAGE =       1.3100E-06               STORAGE =           0.0000
       CONSTANT HEAD =           0.0000         CONSTANT HEAD =           0.0000
      STREAM LEAKAGE =          25.8935        STREAM LEAKAGE =       2.1883E-02
        UZF RECHARGE =           0.0000          UZF RECHARGE =           0.0000
               GW ET =           0.0000                 GW ET =           0.0000
     SURFACE LEAKAGE =           0.0000       SURFACE LEAKAGE =           0.0000

           TOTAL OUT =          25.8935             TOTAL OUT =       2.1883E-02

            IN - OUT =      -2.6493E-03              IN - OUT =      -1.7397E-06

 PERCENT DISCREPANCY =          -0.01     PERCENT DISCREPANCY =          -0.01






         TIME SUMMARY AT END OF TIME STEP   23 IN STRESS PERIOD    2
                    SECONDS     MINUTES      HOURS       DAYS        YEARS
                    -----------------------------------------------------------
   TIME STEP LENGTH  273.49      4.5581     7.59687E-02 3.16536E-03 8.66629E-06
 STRESS PERIOD TIME  1182.3      19.705     0.32841     1.36837E-02 3.74640E-05
         TOTAL TIME  1183.3      19.721     0.32869     1.36953E-02 3.74957E-05
1
 
 SOLVING FOR HEAD 
     1 CALLS TO PCG ROUTINE FOR TIME STEP    24 IN STRESS PERIOD    2
     1 TOTAL ITERATIONS

 MAXIMUM HEAD CHANGE FOR EACH ITERATION (1 INDICATES THE FIRST INNER ITERATION):

    HEAD CHANGE    HEAD CHANGE    HEAD CHANGE    HEAD CHANGE    HEAD CHANGE 
   LAYER,ROW,COL  LAYER,ROW,COL  LAYER,ROW,COL  LAYER,ROW,COL  LAYER,ROW,COL
 ---------------------------------------------------------------------------
  1 -0.6114E-09
   (  2,  1, 20)

 MAXIMUM RESIDUAL FOR EACH ITERATION (1 INDICATES THE FIRST INNER ITERATION):

    RESIDUAL       RESIDUAL       RESIDUAL       RESIDUAL       RESIDUAL    
   LAYER,ROW,COL  LAYER,ROW,COL  LAYER,ROW,COL  LAYER,ROW,COL  LAYER,ROW,COL
 ---------------------------------------------------------------------------
  1 -0.2220E-05
   (  1,  1,  3)



 OUTPUT CONTROL FOR STRESS PERIOD    2   TIME STEP   24
    SAVE HEAD FOR ALL LAYERS
    SAVE DRAWDOWN FOR ALL LAYERS
    SAVE BUDGET
    PRINT BUDGET
 UBDSV1 SAVING "         STORAGE" ON UNIT   9 AT TIME STEP    24, STRESS PERIOD   2
 UBDSV2 SAVING "   CONSTANT HEAD" ON UNIT   9 AT TIME STEP    24, STRESS PERIOD   2
 UBDSV1 SAVING "FLOW RIGHT FACE " ON UNIT   9 AT TIME STEP    24, STRESS PERIOD   2
 UBDSV1 SAVING "FLOW FRONT FACE " ON UNIT   9 AT TIME STEP    24, STRESS PERIOD   2
 UBDSV1 SAVING "FLOW LOWER FACE " ON UNIT   9 AT TIME STEP    24, STRESS PERIOD   2
 UBDSV4 SAVING "  STREAM LEAKAGE" ON UNIT   9 AT TIME STEP    24, STRESS PERIOD   2



 STREAM LISTING     PERIOD      2   STEP       24

 LAYER ROW COL. STREAM  RCH.   FLOW INTO    STREAM     FLOW OUT OF   OVRLND.    DIRECT     STREAM      STREAM      STREAM     STREAM  STREAMBED   FLOW TO   CHNG. UNSAT. 
                SEG.NO.  NO.   STRM. RCH.    LOSS       STRM. RCH.   RUNOFF     PRECIP       ET         HEAD        DEPTH      WIDTH  CONDCTNC.   WAT. TAB.

   1    2    2     1     1    1.0000E+00 -8.9848E-06   1.0000E+00  0.000E+00  0.000E+00  0.000E+00  2.97978E+00  1.000E+00  1.000E+00  4.444E-04  0.000E+00  0.000E+00
   1    2    3     1     2    1.0000E+00 -3.0181E-05   1.0000E+00  0.000E+00  0.000E+00  0.000E+00  2.93755E+00  1.000E+00  1.000E+00  4.834E-04  0.000E+00  0.000E+00
   1    3    3     1     3    1.0000E+00 -1.1937E-04   1.0002E+00  0.000E+00  0.000E+00  0.000E+00  2.87283E+00  1.000E+00  1.000E+00  9.388E-04  0.000E+00  0.000E+00
   1    3    4     1     4    1.0002E+00 -8.9380E-05   1.0002E+00  0.000E+00  0.000E+00  0.000E+00  2.80883E+00  1.000E+00  1.000E+00  4.676E-04  0.000E+00  0.000E+00
   1    4    4     1     5    1.0002E+00 -2.4425E-04   1.0005E+00  0.000E+00  0.000E+00  0.000E+00  2.74411E+00  1.000E+00  1.000E+00  9.546E-04  0.000E+00  0.000E+00
   1    4    5     1     6    1.0005E+00 -1.4451E-04   1.0006E+00  0.000E+00  0.000E+00  0.000E+00  2.68011E+00  1.000E+00  1.000E+00  4.518E-04  0.000E+00  0.000E+00
   1    5    5     1     7    1.0006E+00 -3.7320E-04   1.0010E+00  0.000E+00  0.000E+00  0.000E+00  2.61540E+00  1.000E+00  1.000E+00  9.704E-04  0.000E+00  0.000E+00
   1    5    6     1     8    1.0010E+00 -1.9558E-04   1.0012E+00  0.000E+00  0.000E+00  0.000E+00  2.55140E+00  1.000E+00  1.000E+00  4.360E-04  0.000E+00  0.000E+00
   1    6    6     1     9    1.0012E+00 -5.0622E-04   1.0017E+00  0.000E+00  0.000E+00  0.000E+00  2.48668E+00  1.000E+00  1.000E+00  9.862E-04  0.000E+00  0.000E+00
   1    6    7     1    10    1.0017E+00 -2.4257E-04   1.0020E+00  0.000E+00  0.000E+00  0.000E+00  2.42268E+00  1.000E+00  1.000E+00  4.202E-04  0.000E+00  0.000E+00
   1    7    7     1    11    1.0020E+00 -6.4331E-04   1.0026E+00  0.000E+00  0.000E+00  0.000E+00  2.35796E+00  1.000E+00  1.000E+00  1.002E-03  0.000E+00  0.000E+00
   1    7    8     1    12    1.0026E+00 -2.8550E-04   1.0029E+00  0.000E+00  0.000E+00  0.000E+00  2.29396E+00  1.000E+00  1.000E+00  4.044E-04  0.000E+00  0.000E+00
   1    8    8     1    13    1.0029E+00 -7.8446E-04   1.0037E+00  0.000E+00  0.000E+00  0.000E+00  2.22924E+00  1.000E+00  1.000E+00  1.018E-03  0.000E+00  0.000E+00
   1    8    9     1    14    1.0037E+00 -3.2436E-04   1.0040E+00  0.000E+00  0.000E+00  0.000E+00  2.16524E+00  1.000E+00  1.000E+00  3.886E-04  0.000E+00  0.000E+00
   1    9    9     1    15    1.0040E+00 -9.2969E-04   1.0049E+00  0.000E+00  0.000E+00  0.000E+00  2.10052E+00  1.000E+00  1.000E+00  1.034E-03  0.000E+00  0.000E+00
   1    9   10     1    16    1.0049E+00 -3.5915E-04   1.0053E+00  0.000E+00  0.000E+00  0.000E+00  2.03652E+00  1.000E+00  1.000E+00  3.728E-04  0.000E+00  0.000E+00
   1   10   10     1    17    1.0053E+00 -2.1276E-04   1.0055E+00  0.000E+00  0.000E+00  0.000E+00  2.00978E+00  1.000E+00  1.000E+00  2.149E-04  0.000E+00  0.000E+00
   1   10   11     2     1    1.0055E+00 -4.6601E-04   1.0060E+00  0.000E+00  0.000E+00  0.000E+00  1.97911E+00  1.000E+00  1.000E+00  4.565E-04  0.000E+00  0.000E+00
   1   11   11     2     2    1.0060E+00 -1.0243E-03   1.0070E+00  0.000E+00  0.000E+00  0.000E+00  1.91502E+00  1.000E+00  1.000E+00  9.441E-04  0.000E+00  0.000E+00
   1   11   12     2     3    1.0070E+00 -5.2220E-04   1.0075E+00  0.000E+00  0.000E+00  0.000E+00  1.85102E+00  1.000E+00  1.000E+00  4.545E-04  0.000E+00  0.000E+00
   1   12   12     2     4    1.0075E+00 -1.1851E-03   1.0087E+00  0.000E+00  0.000E+00  0.000E+00  1.78557E+00  1.000E+00  1.000E+00  9.759E-04  0.000E+00  0.000E+00
   1   12   13     2     5    1.0087E+00 -5.4040E-04   1.0092E+00  0.000E+00  0.000E+00  0.000E+00  1.72157E+00  1.000E+00  1.000E+00  4.227E-04  0.000E+00  0.000E+00
   1   13   13     2     6    1.0092E+00 -1.3542E-03   1.0106E+00  0.000E+00  0.000E+00  0.000E+00  1.65611E+00  1.000E+00  1.000E+00  1.008E-03  0.000E+00  0.000E+00
   1   13   14     2     7    1.0106E+00 -5.5037E-04   1.0111E+00  0.000E+00  0.000E+00  0.000E+00  1.59211E+00  1.000E+00  1.000E+00  3.909E-04  0.000E+00  0.000E+00
   1   14   14     2     8    1.0111E+00 -1.5314E-03   1.0127E+00  0.000E+00  0.000E+00  0.000E+00  1.52666E+00  1.000E+00  1.000E+00  1.039E-03  0.000E+00  0.000E+00
   1   14   15     2     9    1.0127E+00 -5.5211E-04   1.0132E+00  0.000E+00  0.000E+00  0.000E+00  1.46266E+00  1.000E+00  1.000E+00  3.591E-04  0.000E+00  0.000E+00
   1   15   15     2    10    1.0132E+00 -1.7169E-03   1.0149E+00  0.000E+00  0.000E+00  0.000E+00  1.39720E+00  1.000E+00  1.000E+00  1.071E-03  0.000E+00  0.000E+00
   1   15   16     2    11    1.0149E+00 -5.4562E-04   1.0155E+00  0.000E+00  0.000E+00  0.000E+00  1.33320E+00  1.000E+00  1.000E+00  3.274E-04  0.000E+00  0.000E+00
   1   16   16     2    12    1.0155E+00 -1.9107E-03   1.0174E+00  0.000E+00  0.000E+00  0.000E+00  1.26775E+00  1.000E+00  1.000E+00  1.103E-03  0.000E+00  0.000E+00
   1   16   17     2    13    1.0174E+00 -5.3090E-04   1.0179E+00  0.000E+00  0.000E+00  0.000E+00  1.20375E+00  1.000E+00  1.000E+00  2.956E-04  0.000E+00  0.000E+00
   1   17   17     2    14    1.0179E+00 -2.1127E-03   1.0200E+00  0.000E+00  0.000E+00  0.000E+00  1.13829E+00  1.000E+00  1.000E+00  1.135E-03  0.000E+00  0.000E+00
   1   17   18     2    15    1.0200E+00 -5.0796E-04   1.0205E+00  0.000E+00  0.000E+00  0.000E+00  1.07429E+00  1.000E+00  1.000E+00  2.638E-04  0.000E+00  0.000E+00
   1   18   18     2    16    1.0205E+00 -1.3386E-03   1.0219E+00  0.000E+00  0.000E+00  0.000E+00  1.03111E+00  1.000E+00  1.000E+00  6.799E-04  0.000E+00  0.000E+00



 UBDSV3 SAVING "           GW ET" ON UNIT   9 AT TIME STEP    24, STRESS PERIOD   2
 UBDSV3 SAVING "    UZF RECHARGE" ON UNIT   9 AT TIME STEP    24, STRESS PERIOD   2
 UBDSV3 SAVING " SURFACE LEAKAGE" ON UNIT   9 AT TIME STEP    24, STRESS PERIOD   2
 UBDSV3 SAVING "       HORT+DUNN" ON UNIT   9 AT TIME STEP    24, STRESS PERIOD   2
 UBDSV3 SAVING "  STORAGE CHANGE" ON UNIT   9 AT TIME STEP    24, STRESS PERIOD   2


UNSATURATED ZONE PACKAGE VOLUMETRIC BUDGET FOR  TIME STEP    24 STRESS PERIOD    2
  ------------------------------------------------------------------------------



     CUMULATIVE VOLUMES      L**3       RATES FOR THIS TIME STEP      L**3/T
     ------------------                 ------------------------

           IN:                                      IN:
           ---                                      ---
        INFILTRATION =       0.0000E+00          INFILTRATION =       0.0000E+00

          OUT:                                     OUT:
          ----                                     ----
              UZF ET =       0.0000E+00                UZF ET =       0.0000E+00
        UZF RECHARGE =       0.0000E+00          UZF RECHARGE =       0.0000E+00

            IN - OUT =       0.0000E+00              IN - OUT =       0.0000E+00

          STORAGE:                                 STORAGE:
          --------                                 --------
      STORAGE CHANGE =       0.0000E+00        STORAGE CHANGE =       0.0000E+00

 PERCENT DISCREPANCY IS DIFFERENCE BETWEEN IN-OUT MINUS CHANGE IN STORAGE
 DIVIDED BY THE AVERAGE OF IN AND OUT TIMES 100

 PERCENT DISCREPANCY =           0.00     PERCENT DISCREPANCY =           0.00







 HEAD WILL BE SAVED ON UNIT   37 AT END OF TIME STEP   24, STRESS PERIOD    2

 DRAWDOWN WILL BE SAVED ON UNIT   38 AT END OF TIME STEP   24, STRESS PERIOD    2
1
  VOLUMETRIC BUDGET FOR ENTIRE MODEL AT END OF TIME STEP   24, STRESS PERIOD   2
  ------------------------------------------------------------------------------

     CUMULATIVE VOLUMES      L**3       RATES FOR THIS TIME STEP      L**3/T
     ------------------                 ------------------------

           IN:                                      IN:
           ---                                      ---
             STORAGE =       3.8033E-06               STORAGE =           0.0000
       CONSTANT HEAD =          33.6704         CONSTANT HEAD =       2.1881E-02
      STREAM LEAKAGE =           0.0000        STREAM LEAKAGE =           0.0000
        UZF RECHARGE =           0.0000          UZF RECHARGE =           0.0000
               GW ET =           0.0000                 GW ET =           0.0000
     SURFACE LEAKAGE =           0.0000       SURFACE LEAKAGE =           0.0000

            TOTAL IN =          33.6704              TOTAL IN =       2.1881E-02

          OUT:                                     OUT:
          ----                                     ----
             STORAGE =       1.3100E-06               STORAGE =           0.0000
       CONSTANT HEAD =           0.0000         CONSTANT HEAD =           0.0000
      STREAM LEAKAGE =          33.6736        STREAM LEAKAGE =       2.1883E-02
        UZF RECHARGE =           0.0000          UZF RECHARGE =           0.0000
               GW ET =           0.0000                 GW ET =           0.0000
     SURFACE LEAKAGE =           0.0000       SURFACE LEAKAGE =           0.0000

           TOTAL OUT =          33.6736             TOTAL OUT =       2.1883E-02

            IN - OUT =      -3.2349E-03              IN - OUT =      -1.6447E-06

 PERCENT DISCREPANCY =          -0.01     PERCENT DISCREPANCY =          -0.01






         TIME SUMMARY AT END OF TIME STEP   24 IN STRESS PERIOD    2
                    SECONDS     MINUTES      HOURS       DAYS        YEARS
                    -----------------------------------------------------------
   TIME STEP LENGTH  355.53      5.9256     9.87593E-02 4.11497E-03 1.12662E-05
 STRESS PERIOD TIME  1537.8      25.630     0.42717     1.77987E-02 4.87301E-05
         TOTAL TIME  1538.8      25.647     0.42745     1.78103E-02 4.87618E-05
1
 
 SOLVING FOR HEAD 
     1 CALLS TO PCG ROUTINE FOR TIME STEP    25 IN STRESS PERIOD    2
     1 TOTAL ITERATIONS

 MAXIMUM HEAD CHANGE FOR EACH ITERATION (1 INDICATES THE FIRST INNER ITERATION):

    HEAD CHANGE    HEAD CHANGE    HEAD CHANGE    HEAD CHANGE    HEAD CHANGE 
   LAYER,ROW,COL  LAYER,ROW,COL  LAYER,ROW,COL  LAYER,ROW,COL  LAYER,ROW,COL
 ---------------------------------------------------------------------------
  1  0.5041E-09
   (  1,  1, 20)

 MAXIMUM RESIDUAL FOR EACH ITERATION (1 INDICATES THE FIRST INNER ITERATION):

    RESIDUAL       RESIDUAL       RESIDUAL       RESIDUAL       RESIDUAL    
   LAYER,ROW,COL  LAYER,ROW,COL  LAYER,ROW,COL  LAYER,ROW,COL  LAYER,ROW,COL
 ---------------------------------------------------------------------------
  1 -0.2030E-05
   (  1,  3,  1)



 OUTPUT CONTROL FOR STRESS PERIOD    2   TIME STEP   25
    SAVE HEAD FOR ALL LAYERS
    SAVE DRAWDOWN FOR ALL LAYERS
    SAVE BUDGET
    PRINT BUDGET
 UBDSV1 SAVING "         STORAGE" ON UNIT   9 AT TIME STEP    25, STRESS PERIOD   2
 UBDSV2 SAVING "   CONSTANT HEAD" ON UNIT   9 AT TIME STEP    25, STRESS PERIOD   2
 UBDSV1 SAVING "FLOW RIGHT FACE " ON UNIT   9 AT TIME STEP    25, STRESS PERIOD   2
 UBDSV1 SAVING "FLOW FRONT FACE " ON UNIT   9 AT TIME STEP    25, STRESS PERIOD   2
 UBDSV1 SAVING "FLOW LOWER FACE " ON UNIT   9 AT TIME STEP    25, STRESS PERIOD   2
 UBDSV4 SAVING "  STREAM LEAKAGE" ON UNIT   9 AT TIME STEP    25, STRESS PERIOD   2



 STREAM LISTING     PERIOD      2   STEP       25

 LAYER ROW COL. STREAM  RCH.   FLOW INTO    STREAM     FLOW OUT OF   OVRLND.    DIRECT     STREAM      STREAM      STREAM     STREAM  STREAMBED   FLOW TO   CHNG. UNSAT. 
                SEG.NO.  NO.   STRM. RCH.    LOSS       STRM. RCH.   RUNOFF     PRECIP       ET         HEAD        DEPTH      WIDTH  CONDCTNC.   WAT. TAB.

   1    2    2     1     1    1.0000E+00 -8.9848E-06   1.0000E+00  0.000E+00  0.000E+00  0.000E+00  2.97978E+00  1.000E+00  1.000E+00  4.444E-04  0.000E+00  0.000E+00
   1    2    3     1     2    1.0000E+00 -3.0181E-05   1.0000E+00  0.000E+00  0.000E+00  0.000E+00  2.93755E+00  1.000E+00  1.000E+00  4.834E-04  0.000E+00  0.000E+00
   1    3    3     1     3    1.0000E+00 -1.1937E-04   1.0002E+00  0.000E+00  0.000E+00  0.000E+00  2.87283E+00  1.000E+00  1.000E+00  9.388E-04  0.000E+00  0.000E+00
   1    3    4     1     4    1.0002E+00 -8.9380E-05   1.0002E+00  0.000E+00  0.000E+00  0.000E+00  2.80883E+00  1.000E+00  1.000E+00  4.676E-04  0.000E+00  0.000E+00
   1    4    4     1     5    1.0002E+00 -2.4425E-04   1.0005E+00  0.000E+00  0.000E+00  0.000E+00  2.74411E+00  1.000E+00  1.000E+00  9.546E-04  0.000E+00  0.000E+00
   1    4    5     1     6    1.0005E+00 -1.4451E-04   1.0006E+00  0.000E+00  0.000E+00  0.000E+00  2.68011E+00  1.000E+00  1.000E+00  4.518E-04  0.000E+00  0.000E+00
   1    5    5     1     7    1.0006E+00 -3.7320E-04   1.0010E+00  0.000E+00  0.000E+00  0.000E+00  2.61540E+00  1.000E+00  1.000E+00  9.704E-04  0.000E+00  0.000E+00
   1    5    6     1     8    1.0010E+00 -1.9558E-04   1.0012E+00  0.000E+00  0.000E+00  0.000E+00  2.55140E+00  1.000E+00  1.000E+00  4.360E-04  0.000E+00  0.000E+00
   1    6    6     1     9    1.0012E+00 -5.0622E-04   1.0017E+00  0.000E+00  0.000E+00  0.000E+00  2.48668E+00  1.000E+00  1.000E+00  9.862E-04  0.000E+00  0.000E+00
   1    6    7     1    10    1.0017E+00 -2.4257E-04   1.0020E+00  0.000E+00  0.000E+00  0.000E+00  2.42268E+00  1.000E+00  1.000E+00  4.202E-04  0.000E+00  0.000E+00
   1    7    7     1    11    1.0020E+00 -6.4331E-04   1.0026E+00  0.000E+00  0.000E+00  0.000E+00  2.35796E+00  1.000E+00  1.000E+00  1.002E-03  0.000E+00  0.000E+00
   1    7    8     1    12    1.0026E+00 -2.8550E-04   1.0029E+00  0.000E+00  0.000E+00  0.000E+00  2.29396E+00  1.000E+00  1.000E+00  4.044E-04  0.000E+00  0.000E+00
   1    8    8     1    13    1.0029E+00 -7.8446E-04   1.0037E+00  0.000E+00  0.000E+00  0.000E+00  2.22924E+00  1.000E+00  1.000E+00  1.018E-03  0.000E+00  0.000E+00
   1    8    9     1    14    1.0037E+00 -3.2436E-04   1.0040E+00  0.000E+00  0.000E+00  0.000E+00  2.16524E+00  1.000E+00  1.000E+00  3.886E-04  0.000E+00  0.000E+00
   1    9    9     1    15    1.0040E+00 -9.2969E-04   1.0049E+00  0.000E+00  0.000E+00  0.000E+00  2.10052E+00  1.000E+00  1.000E+00  1.034E-03  0.000E+00  0.000E+00
   1    9   10     1    16    1.0049E+00 -3.5915E-04   1.0053E+00  0.000E+00  0.000E+00  0.000E+00  2.03652E+00  1.000E+00  1.000E+00  3.728E-04  0.000E+00  0.000E+00
   1   10   10     1    17    1.0053E+00 -2.1276E-04   1.0055E+00  0.000E+00  0.000E+00  0.000E+00  2.00978E+00  1.000E+00  1.000E+00  2.149E-04  0.000E+00  0.000E+00
   1   10   11     2     1    1.0055E+00 -4.6601E-04   1.0060E+00  0.000E+00  0.000E+00  0.000E+00  1.97911E+00  1.000E+00  1.000E+00  4.565E-04  0.000E+00  0.000E+00
   1   11   11     2     2    1.0060E+00 -1.0243E-03   1.0070E+00  0.000E+00  0.000E+00  0.000E+00  1.91502E+00  1.000E+00  1.000E+00  9.441E-04  0.000E+00  0.000E+00
   1   11   12     2     3    1.0070E+00 -5.2220E-04   1.0075E+00  0.000E+00  0.000E+00  0.000E+00  1.85102E+00  1.000E+00  1.000E+00  4.545E-04  0.000E+00  0.000E+00
   1   12   12     2     4    1.0075E+00 -1.1851E-03   1.0087E+00  0.000E+00  0.000E+00  0.000E+00  1.78557E+00  1.000E+00  1.000E+00  9.759E-04  0.000E+00  0.000E+00
   1   12   13     2     5    1.0087E+00 -5.4040E-04   1.0092E+00  0.000E+00  0.000E+00  0.000E+00  1.72157E+00  1.000E+00  1.000E+00  4.227E-04  0.000E+00  0.000E+00
   1   13   13     2     6    1.0092E+00 -1.3542E-03   1.0106E+00  0.000E+00  0.000E+00  0.000E+00  1.65611E+00  1.000E+00  1.000E+00  1.008E-03  0.000E+00  0.000E+00
   1   13   14     2     7    1.0106E+00 -5.5037E-04   1.0111E+00  0.000E+00  0.000E+00  0.000E+00  1.59211E+00  1.000E+00  1.000E+00  3.909E-04  0.000E+00  0.000E+00
   1   14   14     2     8    1.0111E+00 -1.5314E-03   1.0127E+00  0.000E+00  0.000E+00  0.000E+00  1.52666E+00  1.000E+00  1.000E+00  1.039E-03  0.000E+00  0.000E+00
   1   14   15     2     9    1.0127E+00 -5.5211E-04   1.0132E+00  0.000E+00  0.000E+00  0.000E+00  1.46266E+00  1.000E+00  1.000E+00  3.591E-04  0.000E+00  0.000E+00
   1   15   15     2    10    1.0132E+00 -1.7169E-03   1.0149E+00  0.000E+00  0.000E+00  0.000E+00  1.39720E+00  1.000E+00  1.000E+00  1.071E-03  0.000E+00  0.000E+00
   1   15   16     2    11    1.0149E+00 -5.4562E-04   1.0155E+00  0.000E+00  0.000E+00  0.000E+00  1.33320E+00  1.000E+00  1.000E+00  3.274E-04  0.000E+00  0.000E+00
   1   16   16     2    12    1.0155E+00 -1.9107E-03   1.0174E+00  0.000E+00  0.000E+00  0.000E+00  1.26775E+00  1.000E+00  1.000E+00  1.103E-03  0.000E+00  0.000E+00
   1   16   17     2    13    1.0174E+00 -5.3090E-04   1.0179E+00  0.000E+00  0.000E+00  0.000E+00  1.20375E+00  1.000E+00  1.000E+00  2.956E-04  0.000E+00  0.000E+00
   1   17   17     2    14    1.0179E+00 -2.1127E-03   1.0200E+00  0.000E+00  0.000E+00  0.000E+00  1.13829E+00  1.000E+00  1.000E+00  1.135E-03  0.000E+00  0.000E+00
   1   17   18     2    15    1.0200E+00 -5.0796E-04   1.0205E+00  0.000E+00  0.000E+00  0.000E+00  1.07429E+00  1.000E+00  1.000E+00  2.638E-04  0.000E+00  0.000E+00
   1   18   18     2    16    1.0205E+00 -1.3386E-03   1.0219E+00  0.000E+00  0.000E+00  0.000E+00  1.03111E+00  1.000E+00  1.000E+00  6.799E-04  0.000E+00  0.000E+00



 UBDSV3 SAVING "           GW ET" ON UNIT   9 AT TIME STEP    25, STRESS PERIOD   2
 UBDSV3 SAVING "    UZF RECHARGE" ON UNIT   9 AT TIME STEP    25, STRESS PERIOD   2
 UBDSV3 SAVING " SURFACE LEAKAGE" ON UNIT   9 AT TIME STEP    25, STRESS PERIOD   2
 UBDSV3 SAVING "       HORT+DUNN" ON UNIT   9 AT TIME STEP    25, STRESS PERIOD   2
 UBDSV3 SAVING "  STORAGE CHANGE" ON UNIT   9 AT TIME STEP    25, STRESS PERIOD   2


UNSATURATED ZONE PACKAGE VOLUMETRIC BUDGET FOR  TIME STEP    25 STRESS PERIOD    2
  ------------------------------------------------------------------------------



     CUMULATIVE VOLUMES      L**3       RATES FOR THIS TIME STEP      L**3/T
     ------------------                 ------------------------

           IN:                                      IN:
           ---                                      ---
        INFILTRATION =       0.0000E+00          INFILTRATION =       0.0000E+00

          OUT:                                     OUT:
          ----                                     ----
              UZF ET =       0.0000E+00                UZF ET =       0.0000E+00
        UZF RECHARGE =       0.0000E+00          UZF RECHARGE =       0.0000E+00

            IN - OUT =       0.0000E+00              IN - OUT =       0.0000E+00

          STORAGE:                                 STORAGE:
          --------                                 --------
      STORAGE CHANGE =       0.0000E+00        STORAGE CHANGE =       0.0000E+00

 PERCENT DISCREPANCY IS DIFFERENCE BETWEEN IN-OUT MINUS CHANGE IN STORAGE
 DIVIDED BY THE AVERAGE OF IN AND OUT TIMES 100

 PERCENT DISCREPANCY =           0.00     PERCENT DISCREPANCY =           0.00







 HEAD WILL BE SAVED ON UNIT   37 AT END OF TIME STEP   25, STRESS PERIOD    2

 DRAWDOWN WILL BE SAVED ON UNIT   38 AT END OF TIME STEP   25, STRESS PERIOD    2
1
  VOLUMETRIC BUDGET FOR ENTIRE MODEL AT END OF TIME STEP   25, STRESS PERIOD   2
  ------------------------------------------------------------------------------

     CUMULATIVE VOLUMES      L**3       RATES FOR THIS TIME STEP      L**3/T
     ------------------                 ------------------------

           IN:                                      IN:
           ---                                      ---
             STORAGE =       3.8033E-06               STORAGE =           0.0000
       CONSTANT HEAD =          43.7838         CONSTANT HEAD =       2.1881E-02
      STREAM LEAKAGE =           0.0000        STREAM LEAKAGE =           0.0000
        UZF RECHARGE =           0.0000          UZF RECHARGE =           0.0000
               GW ET =           0.0000                 GW ET =           0.0000
     SURFACE LEAKAGE =           0.0000       SURFACE LEAKAGE =           0.0000

            TOTAL IN =          43.7838              TOTAL IN =       2.1881E-02

          OUT:                                     OUT:
          ----                                     ----
             STORAGE =       1.3100E-06               STORAGE =           0.0000
       CONSTANT HEAD =           0.0000         CONSTANT HEAD =           0.0000
      STREAM LEAKAGE =          43.7878        STREAM LEAKAGE =       2.1883E-02
        UZF RECHARGE =           0.0000          UZF RECHARGE =           0.0000
               GW ET =           0.0000                 GW ET =           0.0000
     SURFACE LEAKAGE =           0.0000       SURFACE LEAKAGE =           0.0000

           TOTAL OUT =          43.7878             TOTAL OUT =       2.1883E-02

            IN - OUT =      -3.9444E-03              IN - OUT =      -1.5330E-06

 PERCENT DISCREPANCY =          -0.01     PERCENT DISCREPANCY =          -0.01






         TIME SUMMARY AT END OF TIME STEP   25 IN STRESS PERIOD    2
                    SECONDS     MINUTES      HOURS       DAYS        YEARS
                    -----------------------------------------------------------
   TIME STEP LENGTH  462.19      7.7032     0.12839     5.34946E-03 1.46460E-05
 STRESS PERIOD TIME  2000.0      33.333     0.55556     2.31481E-02 6.33762E-05
         TOTAL TIME  2001.0      33.350     0.55583     2.31597E-02 6.34079E-05
1

 Run end date and time (yyyy/mm/dd hh:mm:ss): 2017/07/11 15:22:00
 Elapsed run time:  0.062 Seconds

